<?xml version="1.0" encoding="UTF-8"?>

<!-- generated on 2023-04-02 19:57:39 by Eclipse SUMO duarouter Version 1.14.1
<configuration xmlns:xsi="http://www.w3.org/2001/XMLSchema-instance" xsi:noNamespaceSchemaLocation="http://sumo.dlr.de/xsd/duarouterConfiguration.xsd">

    <input>
        <net-file value="curitibanew.net.xml"/>
        <route-files value="my50routes.xml"/>
    </input>

    <output>
        <output-file value="curitibanew50.rou.xml"/>
    </output>

    <processing>
        <randomize-flows value="true"/>
    </processing>

</configuration>
-->

<routes xmlns:xsi="http://www.w3.org/2001/XMLSchema-instance" xsi:noNamespaceSchemaLocation="http://sumo.dlr.de/xsd/routes_file.xsd">
    <vehicle id="flow1.0" depart="7.58" departLane="random" color="green">
        <route edges="670931467 435222677 231103932#0 231103932#1 1025358701 1025358700 231103921#0 231103921#1 231103921#2 231101546#0 231101546#1 1049505885 1049505884#0 1049505884#1 664929058 231100863#0 231100863#1 231100863#2 231100863#3 1098152913#0 1098152913#1 663076721#0 663076721#1"/>
    </vehicle>
    <vehicle id="flow3.0" depart="7.91" departLane="random" color="green">
        <route edges="43592860#0 43592860#1 43592860#2 357220475#0 357220475#1 357220475#2 357220475#3 357220475#4 357220475#5 370094378#0 370094378#1 370094378#2 370094378#3 316393925#0 316393925#1 316393925#2 316393925#3 371941800#0 371941800#1 371941798#0 371941798#1 371941798#2 371941798#3 371941798#4 371941812#0 371941812#1"/>
    </vehicle>
    <vehicle id="flow2.0" depart="8.27" departLane="random" color="green">
        <route edges="231102784#0 231102784#1 1025359784#0 1025359784#1 231103928#0 231103928#1 231103928#2 1025358702 1092508367#0 1092508367#1 231103927#0 231103927#1 231103927#2 231103927#3 1049505883#0 1049505883#1 231103925#0 231103925#1 231103925#2 231103925#3 231103925#4 231103925#5 231103925#6 231103925#7 231103925#8"/>
    </vehicle>
    <vehicle id="flow1.1" depart="9.51" departLane="random" color="green">
        <route edges="670931467 435222677 231103932#0 231103932#1 1025358701 1025358700 231103921#0 231103921#1 231103921#2 231101546#0 231101546#1 1049505885 1049505884#0 1049505884#1 664929058 231100863#0 231100863#1 231100863#2 231100863#3 1098152913#0 1098152913#1 663076721#0 663076721#1"/>
    </vehicle>
    <vehicle id="flow1.2" depart="9.74" departLane="random" color="green">
        <route edges="670931467 435222677 231103932#0 231103932#1 1025358701 1025358700 231103921#0 231103921#1 231103921#2 231101546#0 231101546#1 1049505885 1049505884#0 1049505884#1 664929058 231100863#0 231100863#1 231100863#2 231100863#3 1098152913#0 1098152913#1 663076721#0 663076721#1"/>
    </vehicle>
    <vehicle id="flow4.0" depart="11.31" departLane="random" color="green">
        <route edges="343540920#2 343540920#3 343540920#4 343540920#5 343540920#6 343540920#7 1024709877#0 1024709877#1 1024709877#2 1024709877#3 1024709877#4 503876750#0 503876750#1 503876750#2 664929060#0 664929060#1 664929060#2 664929060#3 664929060#4 664929060#5 664929070"/>
    </vehicle>
    <vehicle id="flow1.3" depart="12.69" departLane="random" color="green">
        <route edges="670931467 435222677 231103932#0 231103932#1 1025358701 1025358700 231103921#0 231103921#1 231103921#2 231101546#0 231101546#1 1049505885 1049505884#0 1049505884#1 664929058 231100863#0 231100863#1 231100863#2 231100863#3 1098152913#0 1098152913#1 663076721#0 663076721#1"/>
    </vehicle>
    <vehicle id="flow5.0" depart="13.47" departLane="random" color="green">
        <route edges="458317566#0 458317566#1 458488905 458488907#0 458488907#1 231107710#0 231107710#1 700183099#0 700183099#1 700183099#2 343540929#0 343540929#1 343540929#2 343540929#3"/>
    </vehicle>
    <vehicle id="flow2.1" depart="15.39" departLane="random" color="green">
        <route edges="231102784#0 231102784#1 1025359784#0 1025359784#1 231103928#0 231103928#1 231103928#2 1025358702 1092508367#0 1092508367#1 231103927#0 231103927#1 231103927#2 231103927#3 1049505883#0 1049505883#1 231103925#0 231103925#1 231103925#2 231103925#3 231103925#4 231103925#5 231103925#6 231103925#7 231103925#8"/>
    </vehicle>
    <vehicle id="flow4.1" depart="16.83" departLane="random" color="green">
        <route edges="343540920#2 343540920#3 343540920#4 343540920#5 343540920#6 343540920#7 1024709877#0 1024709877#1 1024709877#2 1024709877#3 1024709877#4 503876750#0 503876750#1 503876750#2 664929060#0 664929060#1 664929060#2 664929060#3 664929060#4 664929060#5 664929070"/>
    </vehicle>
    <vehicle id="flow2.2" depart="17.24" departLane="random" color="green">
        <route edges="231102784#0 231102784#1 1025359784#0 1025359784#1 231103928#0 231103928#1 231103928#2 1025358702 1092508367#0 1092508367#1 231103927#0 231103927#1 231103927#2 231103927#3 1049505883#0 1049505883#1 231103925#0 231103925#1 231103925#2 231103925#3 231103925#4 231103925#5 231103925#6 231103925#7 231103925#8"/>
    </vehicle>
    <vehicle id="flow4.2" depart="18.04" departLane="random" color="green">
        <route edges="343540920#2 343540920#3 343540920#4 343540920#5 343540920#6 343540920#7 1024709877#0 1024709877#1 1024709877#2 1024709877#3 1024709877#4 503876750#0 503876750#1 503876750#2 664929060#0 664929060#1 664929060#2 664929060#3 664929060#4 664929060#5 664929070"/>
    </vehicle>
    <vehicle id="flow3.1" depart="18.39" departLane="random" color="green">
        <route edges="43592860#0 43592860#1 43592860#2 357220475#0 357220475#1 357220475#2 357220475#3 357220475#4 357220475#5 370094378#0 370094378#1 370094378#2 370094378#3 316393925#0 316393925#1 316393925#2 316393925#3 371941800#0 371941800#1 371941798#0 371941798#1 371941798#2 371941798#3 371941798#4 371941812#0 371941812#1"/>
    </vehicle>
    <vehicle id="flow4.3" depart="19.06" departLane="random" color="green">
        <route edges="343540920#2 343540920#3 343540920#4 343540920#5 343540920#6 343540920#7 1024709877#0 1024709877#1 1024709877#2 1024709877#3 1024709877#4 503876750#0 503876750#1 503876750#2 664929060#0 664929060#1 664929060#2 664929060#3 664929060#4 664929060#5 664929070"/>
    </vehicle>
    <vehicle id="flow5.1" depart="20.10" departLane="random" color="green">
        <route edges="458317566#0 458317566#1 458488905 458488907#0 458488907#1 231107710#0 231107710#1 700183099#0 700183099#1 700183099#2 343540929#0 343540929#1 343540929#2 343540929#3"/>
    </vehicle>
    <vehicle id="flow3.2" depart="26.85" departLane="random" color="green">
        <route edges="43592860#0 43592860#1 43592860#2 357220475#0 357220475#1 357220475#2 357220475#3 357220475#4 357220475#5 370094378#0 370094378#1 370094378#2 370094378#3 316393925#0 316393925#1 316393925#2 316393925#3 371941800#0 371941800#1 371941798#0 371941798#1 371941798#2 371941798#3 371941798#4 371941812#0 371941812#1"/>
    </vehicle>
    <vehicle id="flow3.3" depart="30.99" departLane="random" color="green">
        <route edges="43592860#0 43592860#1 43592860#2 357220475#0 357220475#1 357220475#2 357220475#3 357220475#4 357220475#5 370094378#0 370094378#1 370094378#2 370094378#3 316393925#0 316393925#1 316393925#2 316393925#3 371941800#0 371941800#1 371941798#0 371941798#1 371941798#2 371941798#3 371941798#4 371941812#0 371941812#1"/>
    </vehicle>
    <vehicle id="flow5.2" depart="31.95" departLane="random" color="green">
        <route edges="458317566#0 458317566#1 458488905 458488907#0 458488907#1 231107710#0 231107710#1 700183099#0 700183099#1 700183099#2 343540929#0 343540929#1 343540929#2 343540929#3"/>
    </vehicle>
    <vehicle id="flow3.4" depart="33.45" departLane="random" color="green">
        <route edges="43592860#0 43592860#1 43592860#2 357220475#0 357220475#1 357220475#2 357220475#3 357220475#4 357220475#5 370094378#0 370094378#1 370094378#2 370094378#3 316393925#0 316393925#1 316393925#2 316393925#3 371941800#0 371941800#1 371941798#0 371941798#1 371941798#2 371941798#3 371941798#4 371941812#0 371941812#1"/>
    </vehicle>
    <vehicle id="flow5.3" depart="33.65" departLane="random" color="green">
        <route edges="458317566#0 458317566#1 458488905 458488907#0 458488907#1 231107710#0 231107710#1 700183099#0 700183099#1 700183099#2 343540929#0 343540929#1 343540929#2 343540929#3"/>
    </vehicle>
    <vehicle id="flow1.4" depart="35.35" departLane="random" color="green">
        <route edges="670931467 435222677 231103932#0 231103932#1 1025358701 1025358700 231103921#0 231103921#1 231103921#2 231101546#0 231101546#1 1049505885 1049505884#0 1049505884#1 664929058 231100863#0 231100863#1 231100863#2 231100863#3 1098152913#0 1098152913#1 663076721#0 663076721#1"/>
    </vehicle>
    <vehicle id="flow3.5" depart="37.69" departLane="random" color="green">
        <route edges="43592860#0 43592860#1 43592860#2 357220475#0 357220475#1 357220475#2 357220475#3 357220475#4 357220475#5 370094378#0 370094378#1 370094378#2 370094378#3 316393925#0 316393925#1 316393925#2 316393925#3 371941800#0 371941800#1 371941798#0 371941798#1 371941798#2 371941798#3 371941798#4 371941812#0 371941812#1"/>
    </vehicle>
    <vehicle id="flow2.3" depart="38.16" departLane="random" color="green">
        <route edges="231102784#0 231102784#1 1025359784#0 1025359784#1 231103928#0 231103928#1 231103928#2 1025358702 1092508367#0 1092508367#1 231103927#0 231103927#1 231103927#2 231103927#3 1049505883#0 1049505883#1 231103925#0 231103925#1 231103925#2 231103925#3 231103925#4 231103925#5 231103925#6 231103925#7 231103925#8"/>
    </vehicle>
    <vehicle id="flow5.4" depart="43.21" departLane="random" color="green">
        <route edges="458317566#0 458317566#1 458488905 458488907#0 458488907#1 231107710#0 231107710#1 700183099#0 700183099#1 700183099#2 343540929#0 343540929#1 343540929#2 343540929#3"/>
    </vehicle>
    <vehicle id="flow5.5" depart="43.24" departLane="random" color="green">
        <route edges="458317566#0 458317566#1 458488905 458488907#0 458488907#1 231107710#0 231107710#1 700183099#0 700183099#1 700183099#2 343540929#0 343540929#1 343540929#2 343540929#3"/>
    </vehicle>
    <vehicle id="flow4.4" depart="49.84" departLane="random" color="green">
        <route edges="343540920#2 343540920#3 343540920#4 343540920#5 343540920#6 343540920#7 1024709877#0 1024709877#1 1024709877#2 1024709877#3 1024709877#4 503876750#0 503876750#1 503876750#2 664929060#0 664929060#1 664929060#2 664929060#3 664929060#4 664929060#5 664929070"/>
    </vehicle>
    <vehicle id="flow3.6" depart="52.36" departLane="random" color="green">
        <route edges="43592860#0 43592860#1 43592860#2 357220475#0 357220475#1 357220475#2 357220475#3 357220475#4 357220475#5 370094378#0 370094378#1 370094378#2 370094378#3 316393925#0 316393925#1 316393925#2 316393925#3 371941800#0 371941800#1 371941798#0 371941798#1 371941798#2 371941798#3 371941798#4 371941812#0 371941812#1"/>
    </vehicle>
    <vehicle id="flow2.4" depart="55.65" departLane="random" color="green">
        <route edges="231102784#0 231102784#1 1025359784#0 1025359784#1 231103928#0 231103928#1 231103928#2 1025358702 1092508367#0 1092508367#1 231103927#0 231103927#1 231103927#2 231103927#3 1049505883#0 1049505883#1 231103925#0 231103925#1 231103925#2 231103925#3 231103925#4 231103925#5 231103925#6 231103925#7 231103925#8"/>
    </vehicle>
    <vehicle id="flow2.5" depart="56.85" departLane="random" color="green">
        <route edges="231102784#0 231102784#1 1025359784#0 1025359784#1 231103928#0 231103928#1 231103928#2 1025358702 1092508367#0 1092508367#1 231103927#0 231103927#1 231103927#2 231103927#3 1049505883#0 1049505883#1 231103925#0 231103925#1 231103925#2 231103925#3 231103925#4 231103925#5 231103925#6 231103925#7 231103925#8"/>
    </vehicle>
    <vehicle id="flow4.5" depart="58.77" departLane="random" color="green">
        <route edges="343540920#2 343540920#3 343540920#4 343540920#5 343540920#6 343540920#7 1024709877#0 1024709877#1 1024709877#2 1024709877#3 1024709877#4 503876750#0 503876750#1 503876750#2 664929060#0 664929060#1 664929060#2 664929060#3 664929060#4 664929060#5 664929070"/>
    </vehicle>
    <vehicle id="flow4.6" depart="60.23" departLane="random" color="green">
        <route edges="343540920#2 343540920#3 343540920#4 343540920#5 343540920#6 343540920#7 1024709877#0 1024709877#1 1024709877#2 1024709877#3 1024709877#4 503876750#0 503876750#1 503876750#2 664929060#0 664929060#1 664929060#2 664929060#3 664929060#4 664929060#5 664929070"/>
    </vehicle>
    <vehicle id="flow4.7" depart="61.96" departLane="random" color="green">
        <route edges="343540920#2 343540920#3 343540920#4 343540920#5 343540920#6 343540920#7 1024709877#0 1024709877#1 1024709877#2 1024709877#3 1024709877#4 503876750#0 503876750#1 503876750#2 664929060#0 664929060#1 664929060#2 664929060#3 664929060#4 664929060#5 664929070"/>
    </vehicle>
    <vehicle id="flow2.6" depart="66.58" departLane="random" color="green">
        <route edges="231102784#0 231102784#1 1025359784#0 1025359784#1 231103928#0 231103928#1 231103928#2 1025358702 1092508367#0 1092508367#1 231103927#0 231103927#1 231103927#2 231103927#3 1049505883#0 1049505883#1 231103925#0 231103925#1 231103925#2 231103925#3 231103925#4 231103925#5 231103925#6 231103925#7 231103925#8"/>
    </vehicle>
    <vehicle id="flow4.8" depart="68.48" departLane="random" color="green">
        <route edges="343540920#2 343540920#3 343540920#4 343540920#5 343540920#6 343540920#7 1024709877#0 1024709877#1 1024709877#2 1024709877#3 1024709877#4 503876750#0 503876750#1 503876750#2 664929060#0 664929060#1 664929060#2 664929060#3 664929060#4 664929060#5 664929070"/>
    </vehicle>
    <vehicle id="flow5.6" depart="69.59" departLane="random" color="green">
        <route edges="458317566#0 458317566#1 458488905 458488907#0 458488907#1 231107710#0 231107710#1 700183099#0 700183099#1 700183099#2 343540929#0 343540929#1 343540929#2 343540929#3"/>
    </vehicle>
    <vehicle id="flow3.7" depart="72.24" departLane="random" color="green">
        <route edges="43592860#0 43592860#1 43592860#2 357220475#0 357220475#1 357220475#2 357220475#3 357220475#4 357220475#5 370094378#0 370094378#1 370094378#2 370094378#3 316393925#0 316393925#1 316393925#2 316393925#3 371941800#0 371941800#1 371941798#0 371941798#1 371941798#2 371941798#3 371941798#4 371941812#0 371941812#1"/>
    </vehicle>
    <vehicle id="flow4.9" depart="73.88" departLane="random" color="green">
        <route edges="343540920#2 343540920#3 343540920#4 343540920#5 343540920#6 343540920#7 1024709877#0 1024709877#1 1024709877#2 1024709877#3 1024709877#4 503876750#0 503876750#1 503876750#2 664929060#0 664929060#1 664929060#2 664929060#3 664929060#4 664929060#5 664929070"/>
    </vehicle>
    <vehicle id="flow1.5" depart="75.18" departLane="random" color="green">
        <route edges="670931467 435222677 231103932#0 231103932#1 1025358701 1025358700 231103921#0 231103921#1 231103921#2 231101546#0 231101546#1 1049505885 1049505884#0 1049505884#1 664929058 231100863#0 231100863#1 231100863#2 231100863#3 1098152913#0 1098152913#1 663076721#0 663076721#1"/>
    </vehicle>
    <vehicle id="flow1.6" depart="75.85" departLane="random" color="green">
        <route edges="670931467 435222677 231103932#0 231103932#1 1025358701 1025358700 231103921#0 231103921#1 231103921#2 231101546#0 231101546#1 1049505885 1049505884#0 1049505884#1 664929058 231100863#0 231100863#1 231100863#2 231100863#3 1098152913#0 1098152913#1 663076721#0 663076721#1"/>
    </vehicle>
    <vehicle id="flow5.7" depart="77.86" departLane="random" color="green">
        <route edges="458317566#0 458317566#1 458488905 458488907#0 458488907#1 231107710#0 231107710#1 700183099#0 700183099#1 700183099#2 343540929#0 343540929#1 343540929#2 343540929#3"/>
    </vehicle>
    <vehicle id="flow3.8" depart="79.10" departLane="random" color="green">
        <route edges="43592860#0 43592860#1 43592860#2 357220475#0 357220475#1 357220475#2 357220475#3 357220475#4 357220475#5 370094378#0 370094378#1 370094378#2 370094378#3 316393925#0 316393925#1 316393925#2 316393925#3 371941800#0 371941800#1 371941798#0 371941798#1 371941798#2 371941798#3 371941798#4 371941812#0 371941812#1"/>
    </vehicle>
    <vehicle id="flow5.8" depart="83.17" departLane="random" color="green">
        <route edges="458317566#0 458317566#1 458488905 458488907#0 458488907#1 231107710#0 231107710#1 700183099#0 700183099#1 700183099#2 343540929#0 343540929#1 343540929#2 343540929#3"/>
    </vehicle>
    <vehicle id="flow1.7" depart="83.72" departLane="random" color="green">
        <route edges="670931467 435222677 231103932#0 231103932#1 1025358701 1025358700 231103921#0 231103921#1 231103921#2 231101546#0 231101546#1 1049505885 1049505884#0 1049505884#1 664929058 231100863#0 231100863#1 231100863#2 231100863#3 1098152913#0 1098152913#1 663076721#0 663076721#1"/>
    </vehicle>
    <vehicle id="flow2.7" depart="84.41" departLane="random" color="green">
        <route edges="231102784#0 231102784#1 1025359784#0 1025359784#1 231103928#0 231103928#1 231103928#2 1025358702 1092508367#0 1092508367#1 231103927#0 231103927#1 231103927#2 231103927#3 1049505883#0 1049505883#1 231103925#0 231103925#1 231103925#2 231103925#3 231103925#4 231103925#5 231103925#6 231103925#7 231103925#8"/>
    </vehicle>
    <vehicle id="flow1.8" depart="88.65" departLane="random" color="green">
        <route edges="670931467 435222677 231103932#0 231103932#1 1025358701 1025358700 231103921#0 231103921#1 231103921#2 231101546#0 231101546#1 1049505885 1049505884#0 1049505884#1 664929058 231100863#0 231100863#1 231100863#2 231100863#3 1098152913#0 1098152913#1 663076721#0 663076721#1"/>
    </vehicle>
    <vehicle id="flow5.9" depart="88.82" departLane="random" color="green">
        <route edges="458317566#0 458317566#1 458488905 458488907#0 458488907#1 231107710#0 231107710#1 700183099#0 700183099#1 700183099#2 343540929#0 343540929#1 343540929#2 343540929#3"/>
    </vehicle>
    <vehicle id="flow2.8" depart="91.84" departLane="random" color="green">
        <route edges="231102784#0 231102784#1 1025359784#0 1025359784#1 231103928#0 231103928#1 231103928#2 1025358702 1092508367#0 1092508367#1 231103927#0 231103927#1 231103927#2 231103927#3 1049505883#0 1049505883#1 231103925#0 231103925#1 231103925#2 231103925#3 231103925#4 231103925#5 231103925#6 231103925#7 231103925#8"/>
    </vehicle>
    <vehicle id="flow2.9" depart="94.34" departLane="random" color="green">
        <route edges="231102784#0 231102784#1 1025359784#0 1025359784#1 231103928#0 231103928#1 231103928#2 1025358702 1092508367#0 1092508367#1 231103927#0 231103927#1 231103927#2 231103927#3 1049505883#0 1049505883#1 231103925#0 231103925#1 231103925#2 231103925#3 231103925#4 231103925#5 231103925#6 231103925#7 231103925#8"/>
    </vehicle>
    <vehicle id="flow1.9" depart="99.33" departLane="random" color="green">
        <route edges="670931467 435222677 231103932#0 231103932#1 1025358701 1025358700 231103921#0 231103921#1 231103921#2 231101546#0 231101546#1 1049505885 1049505884#0 1049505884#1 664929058 231100863#0 231100863#1 231100863#2 231100863#3 1098152913#0 1098152913#1 663076721#0 663076721#1"/>
    </vehicle>
    <vehicle id="flow3.9" depart="99.64" departLane="random" color="green">
        <route edges="43592860#0 43592860#1 43592860#2 357220475#0 357220475#1 357220475#2 357220475#3 357220475#4 357220475#5 370094378#0 370094378#1 370094378#2 370094378#3 316393925#0 316393925#1 316393925#2 316393925#3 371941800#0 371941800#1 371941798#0 371941798#1 371941798#2 371941798#3 371941798#4 371941812#0 371941812#1"/>
    </vehicle>
</routes>
