<?xml version="1.0" encoding="UTF-8"?>

<!-- generated on 2022-11-20 17:29:48 by Eclipse SUMO duarouter Version 1.14.1
<configuration xmlns:xsi="http://www.w3.org/2001/XMLSchema-instance" xsi:noNamespaceSchemaLocation="http://sumo.dlr.de/xsd/duarouterConfiguration.xsd">

    <input>
        <net-file value="curitibanew.net.xml"/>
        <route-files value="my36routes.xml"/>
    </input>

    <output>
        <output-file value="curitiba36.rou.xml"/>
    </output>

    <processing>
        <randomize-flows value="true"/>
    </processing>

</configuration>
-->

<routes xmlns:xsi="http://www.w3.org/2001/XMLSchema-instance" xsi:noNamespaceSchemaLocation="http://sumo.dlr.de/xsd/routes_file.xsd">
    <vehicle id="flow1.0" depart="7.58" departLane="random" color="green">
        <route edges="343540920#4 343540920#5 343540920#6 343540920#7 1024709877#0 1024709877#1 1024709877#2 1024709877#3 1024709877#4 503876750#0 503876750#1 503876750#2 664929060#0 664929060#1 664929060#2 664929060#3 664929060#4 664929060#5 664929070"/>
    </vehicle>
    <vehicle id="flow4.0" depart="7.91" departLane="random" color="green">
        <route edges="231107717#2 231107711#0 231107711#1 231107711#2 24554228 685150632 685150631 685150636 664929058 231100865 663076719 670931453"/>
    </vehicle>
    <vehicle id="flow4.1" depart="8.27" departLane="random" color="green">
        <route edges="231107717#2 231107711#0 231107711#1 231107711#2 24554228 685150632 685150631 685150636 664929058 231100865 663076719 670931453"/>
    </vehicle>
    <vehicle id="flow1.1" depart="9.51" departLane="random" color="green">
        <route edges="343540920#4 343540920#5 343540920#6 343540920#7 1024709877#0 1024709877#1 1024709877#2 1024709877#3 1024709877#4 503876750#0 503876750#1 503876750#2 664929060#0 664929060#1 664929060#2 664929060#3 664929060#4 664929060#5 664929070"/>
    </vehicle>
    <vehicle id="flow2.0" depart="9.74" departLane="random" color="green">
        <route edges="117119226#4 357220477#0 357220477#1 357220477#2 357220477#3 357220477#4 357220477#5 357220477#6 730950593 370094379#0 370094379#1 370094379#2 232922863#0 232922863#1 232922863#2 232922863#3 371941799#0 371941799#1 371941803#0 371941803#1 371941806#0 371941808 371941798#3 371941798#4 371941812#0 371941812#1"/>
    </vehicle>
    <vehicle id="flow2.1" depart="12.69" departLane="random" color="green">
        <route edges="117119226#4 357220477#0 357220477#1 357220477#2 357220477#3 357220477#4 357220477#5 357220477#6 730950593 370094379#0 370094379#1 370094379#2 232922863#0 232922863#1 232922863#2 232922863#3 371941799#0 371941799#1 371941803#0 371941803#1 371941806#0 371941808 371941798#3 371941798#4 371941812#0 371941812#1"/>
    </vehicle>
    <vehicle id="flow3.0" depart="15.39" departLane="random" color="green">
        <route edges="435222676#0 435222676#1 670931455 1025358701 1025358700 231103921#0 231103921#1 231103921#2 231101546#0 231101546#1 1049505885 1049505884#0 1049505884#1 664929058 231100863#0 231100863#1 231100863#2 231100863#3 1098152913#0 1098152913#1"/>
    </vehicle>
    <vehicle id="flow6.0" depart="16.83" departLane="random" color="green">
        <route edges="397646584 231100859 670931458 670931455 231103931#0 231103931#1 670830954#0 670830954#1 670830954#2 371941802#0 371941802#1"/>
    </vehicle>
    <vehicle id="flow3.1" depart="17.24" departLane="random" color="green">
        <route edges="435222676#0 435222676#1 670931455 1025358701 1025358700 231103921#0 231103921#1 231103921#2 231101546#0 231101546#1 1049505885 1049505884#0 1049505884#1 664929058 231100863#0 231100863#1 231100863#2 231100863#3 1098152913#0 1098152913#1"/>
    </vehicle>
    <vehicle id="flow6.1" depart="18.04" departLane="random" color="green">
        <route edges="397646584 231100859 670931458 670931455 231103931#0 231103931#1 670830954#0 670830954#1 670830954#2 371941802#0 371941802#1"/>
    </vehicle>
    <vehicle id="flow4.2" depart="18.39" departLane="random" color="green">
        <route edges="231107717#2 231107711#0 231107711#1 231107711#2 24554228 685150632 685150631 685150636 664929058 231100865 663076719 670931453"/>
    </vehicle>
    <vehicle id="flow5.0" depart="26.85" departLane="random" color="green">
        <route edges="663076744#0 663076744#1 231100864 659241087 663076733#0 663076733#1 1092508368 231103923#0 231103923#1 232922868#0 232922868#1 503876751#0 503876751#1 503876751#2 316394251#0 316394251#1 316394251#2"/>
    </vehicle>
    <vehicle id="flow5.1" depart="30.99" departLane="random" color="green">
        <route edges="663076744#0 663076744#1 231100864 659241087 663076733#0 663076733#1 1092508368 231103923#0 231103923#1 232922868#0 232922868#1 503876751#0 503876751#1 503876751#2 316394251#0 316394251#1 316394251#2"/>
    </vehicle>
    <vehicle id="flow4.3" depart="33.45" departLane="random" color="green">
        <route edges="231107717#2 231107711#0 231107711#1 231107711#2 24554228 685150632 685150631 685150636 664929058 231100865 663076719 670931453"/>
    </vehicle>
    <vehicle id="flow1.2" depart="35.35" departLane="random" color="green">
        <route edges="343540920#4 343540920#5 343540920#6 343540920#7 1024709877#0 1024709877#1 1024709877#2 1024709877#3 1024709877#4 503876750#0 503876750#1 503876750#2 664929060#0 664929060#1 664929060#2 664929060#3 664929060#4 664929060#5 664929070"/>
    </vehicle>
    <vehicle id="flow5.2" depart="37.69" departLane="random" color="green">
        <route edges="663076744#0 663076744#1 231100864 659241087 663076733#0 663076733#1 1092508368 231103923#0 231103923#1 232922868#0 232922868#1 503876751#0 503876751#1 503876751#2 316394251#0 316394251#1 316394251#2"/>
    </vehicle>
    <vehicle id="flow2.2" depart="38.16" departLane="random" color="green">
        <route edges="117119226#4 357220477#0 357220477#1 357220477#2 357220477#3 357220477#4 357220477#5 357220477#6 730950593 370094379#0 370094379#1 370094379#2 232922863#0 232922863#1 232922863#2 232922863#3 371941799#0 371941799#1 371941803#0 371941803#1 371941806#0 371941808 371941798#3 371941798#4 371941812#0 371941812#1"/>
    </vehicle>
    <vehicle id="flow6.2" depart="49.84" departLane="random" color="green">
        <route edges="397646584 231100859 670931458 670931455 231103931#0 231103931#1 670830954#0 670830954#1 670830954#2 371941802#0 371941802#1"/>
    </vehicle>
    <vehicle id="flow5.3" depart="52.36" departLane="random" color="green">
        <route edges="663076744#0 663076744#1 231100864 659241087 663076733#0 663076733#1 1092508368 231103923#0 231103923#1 232922868#0 232922868#1 503876751#0 503876751#1 503876751#2 316394251#0 316394251#1 316394251#2"/>
    </vehicle>
    <vehicle id="flow3.2" depart="55.65" departLane="random" color="green">
        <route edges="435222676#0 435222676#1 670931455 1025358701 1025358700 231103921#0 231103921#1 231103921#2 231101546#0 231101546#1 1049505885 1049505884#0 1049505884#1 664929058 231100863#0 231100863#1 231100863#2 231100863#3 1098152913#0 1098152913#1"/>
    </vehicle>
    <vehicle id="flow3.3" depart="56.85" departLane="random" color="green">
        <route edges="435222676#0 435222676#1 670931455 1025358701 1025358700 231103921#0 231103921#1 231103921#2 231101546#0 231101546#1 1049505885 1049505884#0 1049505884#1 664929058 231100863#0 231100863#1 231100863#2 231100863#3 1098152913#0 1098152913#1"/>
    </vehicle>
    <vehicle id="flow6.3" depart="58.77" departLane="random" color="green">
        <route edges="397646584 231100859 670931458 670931455 231103931#0 231103931#1 670830954#0 670830954#1 670830954#2 371941802#0 371941802#1"/>
    </vehicle>
    <vehicle id="flow3.4" depart="66.58" departLane="random" color="green">
        <route edges="435222676#0 435222676#1 670931455 1025358701 1025358700 231103921#0 231103921#1 231103921#2 231101546#0 231101546#1 1049505885 1049505884#0 1049505884#1 664929058 231100863#0 231100863#1 231100863#2 231100863#3 1098152913#0 1098152913#1"/>
    </vehicle>
    <vehicle id="flow6.4" depart="68.48" departLane="random" color="green">
        <route edges="397646584 231100859 670931458 670931455 231103931#0 231103931#1 670830954#0 670830954#1 670830954#2 371941802#0 371941802#1"/>
    </vehicle>
    <vehicle id="flow5.4" depart="72.24" departLane="random" color="green">
        <route edges="663076744#0 663076744#1 231100864 659241087 663076733#0 663076733#1 1092508368 231103923#0 231103923#1 232922868#0 232922868#1 503876751#0 503876751#1 503876751#2 316394251#0 316394251#1 316394251#2"/>
    </vehicle>
    <vehicle id="flow6.5" depart="73.88" departLane="random" color="green">
        <route edges="397646584 231100859 670931458 670931455 231103931#0 231103931#1 670830954#0 670830954#1 670830954#2 371941802#0 371941802#1"/>
    </vehicle>
    <vehicle id="flow1.3" depart="75.18" departLane="random" color="green">
        <route edges="343540920#4 343540920#5 343540920#6 343540920#7 1024709877#0 1024709877#1 1024709877#2 1024709877#3 1024709877#4 503876750#0 503876750#1 503876750#2 664929060#0 664929060#1 664929060#2 664929060#3 664929060#4 664929060#5 664929070"/>
    </vehicle>
    <vehicle id="flow2.3" depart="75.85" departLane="random" color="green">
        <route edges="117119226#4 357220477#0 357220477#1 357220477#2 357220477#3 357220477#4 357220477#5 357220477#6 730950593 370094379#0 370094379#1 370094379#2 232922863#0 232922863#1 232922863#2 232922863#3 371941799#0 371941799#1 371941803#0 371941803#1 371941806#0 371941808 371941798#3 371941798#4 371941812#0 371941812#1"/>
    </vehicle>
    <vehicle id="flow5.5" depart="79.10" departLane="random" color="green">
        <route edges="663076744#0 663076744#1 231100864 659241087 663076733#0 663076733#1 1092508368 231103923#0 231103923#1 232922868#0 232922868#1 503876751#0 503876751#1 503876751#2 316394251#0 316394251#1 316394251#2"/>
    </vehicle>
    <vehicle id="flow1.4" depart="83.72" departLane="random" color="green">
        <route edges="343540920#4 343540920#5 343540920#6 343540920#7 1024709877#0 1024709877#1 1024709877#2 1024709877#3 1024709877#4 503876750#0 503876750#1 503876750#2 664929060#0 664929060#1 664929060#2 664929060#3 664929060#4 664929060#5 664929070"/>
    </vehicle>
    <vehicle id="flow3.5" depart="84.41" departLane="random" color="green">
        <route edges="435222676#0 435222676#1 670931455 1025358701 1025358700 231103921#0 231103921#1 231103921#2 231101546#0 231101546#1 1049505885 1049505884#0 1049505884#1 664929058 231100863#0 231100863#1 231100863#2 231100863#3 1098152913#0 1098152913#1"/>
    </vehicle>
    <vehicle id="flow1.5" depart="88.65" departLane="random" color="green">
        <route edges="343540920#4 343540920#5 343540920#6 343540920#7 1024709877#0 1024709877#1 1024709877#2 1024709877#3 1024709877#4 503876750#0 503876750#1 503876750#2 664929060#0 664929060#1 664929060#2 664929060#3 664929060#4 664929060#5 664929070"/>
    </vehicle>
    <vehicle id="flow4.4" depart="91.84" departLane="random" color="green">
        <route edges="231107717#2 231107711#0 231107711#1 231107711#2 24554228 685150632 685150631 685150636 664929058 231100865 663076719 670931453"/>
    </vehicle>
    <vehicle id="flow2.4" depart="94.34" departLane="random" color="green">
        <route edges="117119226#4 357220477#0 357220477#1 357220477#2 357220477#3 357220477#4 357220477#5 357220477#6 730950593 370094379#0 370094379#1 370094379#2 232922863#0 232922863#1 232922863#2 232922863#3 371941799#0 371941799#1 371941803#0 371941803#1 371941806#0 371941808 371941798#3 371941798#4 371941812#0 371941812#1"/>
    </vehicle>
    <vehicle id="flow2.5" depart="99.33" departLane="random" color="green">
        <route edges="117119226#4 357220477#0 357220477#1 357220477#2 357220477#3 357220477#4 357220477#5 357220477#6 730950593 370094379#0 370094379#1 370094379#2 232922863#0 232922863#1 232922863#2 232922863#3 371941799#0 371941799#1 371941803#0 371941803#1 371941806#0 371941808 371941798#3 371941798#4 371941812#0 371941812#1"/>
    </vehicle>
    <vehicle id="flow4.5" depart="99.64" departLane="random" color="green">
        <route edges="231107717#2 231107711#0 231107711#1 231107711#2 24554228 685150632 685150631 685150636 664929058 231100865 663076719 670931453"/>
    </vehicle>
</routes>
