<?xml version="1.0" encoding="UTF-8"?>

<!-- generated on 2023-04-02 19:57:56 by Eclipse SUMO duarouter Version 1.14.1
<configuration xmlns:xsi="http://www.w3.org/2001/XMLSchema-instance" xsi:noNamespaceSchemaLocation="http://sumo.dlr.de/xsd/duarouterConfiguration.xsd">

    <input>
        <net-file value="curitibanew.net.xml"/>
        <route-files value="my100routes.xml"/>
    </input>

    <output>
        <output-file value="curitibanew100.rou.xml"/>
    </output>

    <processing>
        <randomize-flows value="true"/>
    </processing>

</configuration>
-->

<routes xmlns:xsi="http://www.w3.org/2001/XMLSchema-instance" xsi:noNamespaceSchemaLocation="http://sumo.dlr.de/xsd/routes_file.xsd">
    <vehicle id="flow4.0" depart="4.76" departLane="random" color="green">
        <route edges="343540920#2 343540920#3 343540920#4 343540920#5 343540920#6 343540920#7 1024709877#0 1024709877#1 1024709877#2 1024709877#3 1024709877#4 503876750#0 503876750#1 503876750#2 664929060#0 664929060#1 664929060#2 664929060#3 664929060#4 664929060#5 664929070"/>
    </vehicle>
    <vehicle id="flow4.1" depart="7.20" departLane="random" color="green">
        <route edges="343540920#2 343540920#3 343540920#4 343540920#5 343540920#6 343540920#7 1024709877#0 1024709877#1 1024709877#2 1024709877#3 1024709877#4 503876750#0 503876750#1 503876750#2 664929060#0 664929060#1 664929060#2 664929060#3 664929060#4 664929060#5 664929070"/>
    </vehicle>
    <vehicle id="flow1.0" depart="7.58" departLane="random" color="green">
        <route edges="670931467 435222677 231103932#0 231103932#1 1025358701 1025358700 231103921#0 231103921#1 231103921#2 231101546#0 231101546#1 1049505885 1049505884#0 1049505884#1 664929058 231100863#0 231100863#1 231100863#2 231100863#3 1098152913#0 1098152913#1 663076721#0 663076721#1"/>
    </vehicle>
    <vehicle id="flow2.0" depart="7.91" departLane="random" color="green">
        <route edges="231102784#0 231102784#1 1025359784#0 1025359784#1 231103928#0 231103928#1 231103928#2 1025358702 1092508367#0 1092508367#1 231103927#0 231103927#1 231103927#2 231103927#3 1049505883#0 1049505883#1 231103925#0 231103925#1 231103925#2 231103925#3 231103925#4 231103925#5 231103925#6 231103925#7 231103925#8"/>
    </vehicle>
    <vehicle id="flow1.1" depart="8.27" departLane="random" color="green">
        <route edges="670931467 435222677 231103932#0 231103932#1 1025358701 1025358700 231103921#0 231103921#1 231103921#2 231101546#0 231101546#1 1049505885 1049505884#0 1049505884#1 664929058 231100863#0 231100863#1 231100863#2 231100863#3 1098152913#0 1098152913#1 663076721#0 663076721#1"/>
    </vehicle>
    <vehicle id="flow1.2" depart="9.51" departLane="random" color="green">
        <route edges="670931467 435222677 231103932#0 231103932#1 1025358701 1025358700 231103921#0 231103921#1 231103921#2 231101546#0 231101546#1 1049505885 1049505884#0 1049505884#1 664929058 231100863#0 231100863#1 231100863#2 231100863#3 1098152913#0 1098152913#1 663076721#0 663076721#1"/>
    </vehicle>
    <vehicle id="flow1.3" depart="9.74" departLane="random" color="green">
        <route edges="670931467 435222677 231103932#0 231103932#1 1025358701 1025358700 231103921#0 231103921#1 231103921#2 231101546#0 231101546#1 1049505885 1049505884#0 1049505884#1 664929058 231100863#0 231100863#1 231100863#2 231100863#3 1098152913#0 1098152913#1 663076721#0 663076721#1"/>
    </vehicle>
    <vehicle id="flow4.2" depart="10.31" departLane="random" color="green">
        <route edges="343540920#2 343540920#3 343540920#4 343540920#5 343540920#6 343540920#7 1024709877#0 1024709877#1 1024709877#2 1024709877#3 1024709877#4 503876750#0 503876750#1 503876750#2 664929060#0 664929060#1 664929060#2 664929060#3 664929060#4 664929060#5 664929070"/>
    </vehicle>
    <vehicle id="flow5.0" depart="10.41" departLane="random" color="green">
        <route edges="458317566#0 458317566#1 458488905 458488907#0 458488907#1 231107710#0 231107710#1 700183099#0 700183099#1 700183099#2 343540929#0 343540929#1 343540929#2 343540929#3"/>
    </vehicle>
    <vehicle id="flow2.1" depart="11.31" departLane="random" color="green">
        <route edges="231102784#0 231102784#1 1025359784#0 1025359784#1 231103928#0 231103928#1 231103928#2 1025358702 1092508367#0 1092508367#1 231103927#0 231103927#1 231103927#2 231103927#3 1049505883#0 1049505883#1 231103925#0 231103925#1 231103925#2 231103925#3 231103925#4 231103925#5 231103925#6 231103925#7 231103925#8"/>
    </vehicle>
    <vehicle id="flow3.0" depart="11.32" departLane="random" color="green">
        <route edges="43592860#0 43592860#1 43592860#2 357220475#0 357220475#1 357220475#2 357220475#3 357220475#4 357220475#5 370094378#0 370094378#1 370094378#2 370094378#3 316393925#0 316393925#1 316393925#2 316393925#3 371941800#0 371941800#1 371941798#0 371941798#1 371941798#2 371941798#3 371941798#4 371941812#0 371941812#1"/>
    </vehicle>
    <vehicle id="flow1.4" depart="12.69" departLane="random" color="green">
        <route edges="670931467 435222677 231103932#0 231103932#1 1025358701 1025358700 231103921#0 231103921#1 231103921#2 231101546#0 231101546#1 1049505885 1049505884#0 1049505884#1 664929058 231100863#0 231100863#1 231100863#2 231100863#3 1098152913#0 1098152913#1 663076721#0 663076721#1"/>
    </vehicle>
    <vehicle id="flow4.3" depart="12.79" departLane="random" color="green">
        <route edges="343540920#2 343540920#3 343540920#4 343540920#5 343540920#6 343540920#7 1024709877#0 1024709877#1 1024709877#2 1024709877#3 1024709877#4 503876750#0 503876750#1 503876750#2 664929060#0 664929060#1 664929060#2 664929060#3 664929060#4 664929060#5 664929070"/>
    </vehicle>
    <vehicle id="flow5.1" depart="13.11" departLane="random" color="green">
        <route edges="458317566#0 458317566#1 458488905 458488907#0 458488907#1 231107710#0 231107710#1 700183099#0 700183099#1 700183099#2 343540929#0 343540929#1 343540929#2 343540929#3"/>
    </vehicle>
    <vehicle id="flow3.1" depart="13.47" departLane="random" color="green">
        <route edges="43592860#0 43592860#1 43592860#2 357220475#0 357220475#1 357220475#2 357220475#3 357220475#4 357220475#5 370094378#0 370094378#1 370094378#2 370094378#3 316393925#0 316393925#1 316393925#2 316393925#3 371941800#0 371941800#1 371941798#0 371941798#1 371941798#2 371941798#3 371941798#4 371941812#0 371941812#1"/>
    </vehicle>
    <vehicle id="flow1.5" depart="15.39" departLane="random" color="green">
        <route edges="670931467 435222677 231103932#0 231103932#1 1025358701 1025358700 231103921#0 231103921#1 231103921#2 231101546#0 231101546#1 1049505885 1049505884#0 1049505884#1 664929058 231100863#0 231100863#1 231100863#2 231100863#3 1098152913#0 1098152913#1 663076721#0 663076721#1"/>
    </vehicle>
    <vehicle id="flow2.2" depart="16.83" departLane="random" color="green">
        <route edges="231102784#0 231102784#1 1025359784#0 1025359784#1 231103928#0 231103928#1 231103928#2 1025358702 1092508367#0 1092508367#1 231103927#0 231103927#1 231103927#2 231103927#3 1049505883#0 1049505883#1 231103925#0 231103925#1 231103925#2 231103925#3 231103925#4 231103925#5 231103925#6 231103925#7 231103925#8"/>
    </vehicle>
    <vehicle id="flow1.6" depart="17.24" departLane="random" color="green">
        <route edges="670931467 435222677 231103932#0 231103932#1 1025358701 1025358700 231103921#0 231103921#1 231103921#2 231101546#0 231101546#1 1049505885 1049505884#0 1049505884#1 664929058 231100863#0 231100863#1 231100863#2 231100863#3 1098152913#0 1098152913#1 663076721#0 663076721#1"/>
    </vehicle>
    <vehicle id="flow4.4" depart="18.01" departLane="random" color="green">
        <route edges="343540920#2 343540920#3 343540920#4 343540920#5 343540920#6 343540920#7 1024709877#0 1024709877#1 1024709877#2 1024709877#3 1024709877#4 503876750#0 503876750#1 503876750#2 664929060#0 664929060#1 664929060#2 664929060#3 664929060#4 664929060#5 664929070"/>
    </vehicle>
    <vehicle id="flow2.3" depart="18.04" departLane="random" color="green">
        <route edges="231102784#0 231102784#1 1025359784#0 1025359784#1 231103928#0 231103928#1 231103928#2 1025358702 1092508367#0 1092508367#1 231103927#0 231103927#1 231103927#2 231103927#3 1049505883#0 1049505883#1 231103925#0 231103925#1 231103925#2 231103925#3 231103925#4 231103925#5 231103925#6 231103925#7 231103925#8"/>
    </vehicle>
    <vehicle id="flow4.5" depart="18.13" departLane="random" color="green">
        <route edges="343540920#2 343540920#3 343540920#4 343540920#5 343540920#6 343540920#7 1024709877#0 1024709877#1 1024709877#2 1024709877#3 1024709877#4 503876750#0 503876750#1 503876750#2 664929060#0 664929060#1 664929060#2 664929060#3 664929060#4 664929060#5 664929070"/>
    </vehicle>
    <vehicle id="flow2.4" depart="18.39" departLane="random" color="green">
        <route edges="231102784#0 231102784#1 1025359784#0 1025359784#1 231103928#0 231103928#1 231103928#2 1025358702 1092508367#0 1092508367#1 231103927#0 231103927#1 231103927#2 231103927#3 1049505883#0 1049505883#1 231103925#0 231103925#1 231103925#2 231103925#3 231103925#4 231103925#5 231103925#6 231103925#7 231103925#8"/>
    </vehicle>
    <vehicle id="flow2.5" depart="19.06" departLane="random" color="green">
        <route edges="231102784#0 231102784#1 1025359784#0 1025359784#1 231103928#0 231103928#1 231103928#2 1025358702 1092508367#0 1092508367#1 231103927#0 231103927#1 231103927#2 231103927#3 1049505883#0 1049505883#1 231103925#0 231103925#1 231103925#2 231103925#3 231103925#4 231103925#5 231103925#6 231103925#7 231103925#8"/>
    </vehicle>
    <vehicle id="flow4.6" depart="19.60" departLane="random" color="green">
        <route edges="343540920#2 343540920#3 343540920#4 343540920#5 343540920#6 343540920#7 1024709877#0 1024709877#1 1024709877#2 1024709877#3 1024709877#4 503876750#0 503876750#1 503876750#2 664929060#0 664929060#1 664929060#2 664929060#3 664929060#4 664929060#5 664929070"/>
    </vehicle>
    <vehicle id="flow3.2" depart="20.10" departLane="random" color="green">
        <route edges="43592860#0 43592860#1 43592860#2 357220475#0 357220475#1 357220475#2 357220475#3 357220475#4 357220475#5 370094378#0 370094378#1 370094378#2 370094378#3 316393925#0 316393925#1 316393925#2 316393925#3 371941800#0 371941800#1 371941798#0 371941798#1 371941798#2 371941798#3 371941798#4 371941812#0 371941812#1"/>
    </vehicle>
    <vehicle id="flow3.3" depart="25.67" departLane="random" color="green">
        <route edges="43592860#0 43592860#1 43592860#2 357220475#0 357220475#1 357220475#2 357220475#3 357220475#4 357220475#5 370094378#0 370094378#1 370094378#2 370094378#3 316393925#0 316393925#1 316393925#2 316393925#3 371941800#0 371941800#1 371941798#0 371941798#1 371941798#2 371941798#3 371941798#4 371941812#0 371941812#1"/>
    </vehicle>
    <vehicle id="flow2.6" depart="26.85" departLane="random" color="green">
        <route edges="231102784#0 231102784#1 1025359784#0 1025359784#1 231103928#0 231103928#1 231103928#2 1025358702 1092508367#0 1092508367#1 231103927#0 231103927#1 231103927#2 231103927#3 1049505883#0 1049505883#1 231103925#0 231103925#1 231103925#2 231103925#3 231103925#4 231103925#5 231103925#6 231103925#7 231103925#8"/>
    </vehicle>
    <vehicle id="flow3.4" depart="27.36" departLane="random" color="green">
        <route edges="43592860#0 43592860#1 43592860#2 357220475#0 357220475#1 357220475#2 357220475#3 357220475#4 357220475#5 370094378#0 370094378#1 370094378#2 370094378#3 316393925#0 316393925#1 316393925#2 316393925#3 371941800#0 371941800#1 371941798#0 371941798#1 371941798#2 371941798#3 371941798#4 371941812#0 371941812#1"/>
    </vehicle>
    <vehicle id="flow5.2" depart="27.62" departLane="random" color="green">
        <route edges="458317566#0 458317566#1 458488905 458488907#0 458488907#1 231107710#0 231107710#1 700183099#0 700183099#1 700183099#2 343540929#0 343540929#1 343540929#2 343540929#3"/>
    </vehicle>
    <vehicle id="flow5.3" depart="30.47" departLane="random" color="green">
        <route edges="458317566#0 458317566#1 458488905 458488907#0 458488907#1 231107710#0 231107710#1 700183099#0 700183099#1 700183099#2 343540929#0 343540929#1 343540929#2 343540929#3"/>
    </vehicle>
    <vehicle id="flow2.7" depart="30.99" departLane="random" color="green">
        <route edges="231102784#0 231102784#1 1025359784#0 1025359784#1 231103928#0 231103928#1 231103928#2 1025358702 1092508367#0 1092508367#1 231103927#0 231103927#1 231103927#2 231103927#3 1049505883#0 1049505883#1 231103925#0 231103925#1 231103925#2 231103925#3 231103925#4 231103925#5 231103925#6 231103925#7 231103925#8"/>
    </vehicle>
    <vehicle id="flow3.5" depart="31.28" departLane="random" color="green">
        <route edges="43592860#0 43592860#1 43592860#2 357220475#0 357220475#1 357220475#2 357220475#3 357220475#4 357220475#5 370094378#0 370094378#1 370094378#2 370094378#3 316393925#0 316393925#1 316393925#2 316393925#3 371941800#0 371941800#1 371941798#0 371941798#1 371941798#2 371941798#3 371941798#4 371941812#0 371941812#1"/>
    </vehicle>
    <vehicle id="flow3.6" depart="31.95" departLane="random" color="green">
        <route edges="43592860#0 43592860#1 43592860#2 357220475#0 357220475#1 357220475#2 357220475#3 357220475#4 357220475#5 370094378#0 370094378#1 370094378#2 370094378#3 316393925#0 316393925#1 316393925#2 316393925#3 371941800#0 371941800#1 371941798#0 371941798#1 371941798#2 371941798#3 371941798#4 371941812#0 371941812#1"/>
    </vehicle>
    <vehicle id="flow5.4" depart="32.80" departLane="random" color="green">
        <route edges="458317566#0 458317566#1 458488905 458488907#0 458488907#1 231107710#0 231107710#1 700183099#0 700183099#1 700183099#2 343540929#0 343540929#1 343540929#2 343540929#3"/>
    </vehicle>
    <vehicle id="flow2.8" depart="33.45" departLane="random" color="green">
        <route edges="231102784#0 231102784#1 1025359784#0 1025359784#1 231103928#0 231103928#1 231103928#2 1025358702 1092508367#0 1092508367#1 231103927#0 231103927#1 231103927#2 231103927#3 1049505883#0 1049505883#1 231103925#0 231103925#1 231103925#2 231103925#3 231103925#4 231103925#5 231103925#6 231103925#7 231103925#8"/>
    </vehicle>
    <vehicle id="flow3.7" depart="33.65" departLane="random" color="green">
        <route edges="43592860#0 43592860#1 43592860#2 357220475#0 357220475#1 357220475#2 357220475#3 357220475#4 357220475#5 370094378#0 370094378#1 370094378#2 370094378#3 316393925#0 316393925#1 316393925#2 316393925#3 371941800#0 371941800#1 371941798#0 371941798#1 371941798#2 371941798#3 371941798#4 371941812#0 371941812#1"/>
    </vehicle>
    <vehicle id="flow5.5" depart="35.32" departLane="random" color="green">
        <route edges="458317566#0 458317566#1 458488905 458488907#0 458488907#1 231107710#0 231107710#1 700183099#0 700183099#1 700183099#2 343540929#0 343540929#1 343540929#2 343540929#3"/>
    </vehicle>
    <vehicle id="flow1.7" depart="35.35" departLane="random" color="green">
        <route edges="670931467 435222677 231103932#0 231103932#1 1025358701 1025358700 231103921#0 231103921#1 231103921#2 231101546#0 231101546#1 1049505885 1049505884#0 1049505884#1 664929058 231100863#0 231100863#1 231100863#2 231100863#3 1098152913#0 1098152913#1 663076721#0 663076721#1"/>
    </vehicle>
    <vehicle id="flow4.7" depart="35.86" departLane="random" color="green">
        <route edges="343540920#2 343540920#3 343540920#4 343540920#5 343540920#6 343540920#7 1024709877#0 1024709877#1 1024709877#2 1024709877#3 1024709877#4 503876750#0 503876750#1 503876750#2 664929060#0 664929060#1 664929060#2 664929060#3 664929060#4 664929060#5 664929070"/>
    </vehicle>
    <vehicle id="flow5.6" depart="36.17" departLane="random" color="green">
        <route edges="458317566#0 458317566#1 458488905 458488907#0 458488907#1 231107710#0 231107710#1 700183099#0 700183099#1 700183099#2 343540929#0 343540929#1 343540929#2 343540929#3"/>
    </vehicle>
    <vehicle id="flow2.9" depart="37.69" departLane="random" color="green">
        <route edges="231102784#0 231102784#1 1025359784#0 1025359784#1 231103928#0 231103928#1 231103928#2 1025358702 1092508367#0 1092508367#1 231103927#0 231103927#1 231103927#2 231103927#3 1049505883#0 1049505883#1 231103925#0 231103925#1 231103925#2 231103925#3 231103925#4 231103925#5 231103925#6 231103925#7 231103925#8"/>
    </vehicle>
    <vehicle id="flow4.8" depart="37.70" departLane="random" color="green">
        <route edges="343540920#2 343540920#3 343540920#4 343540920#5 343540920#6 343540920#7 1024709877#0 1024709877#1 1024709877#2 1024709877#3 1024709877#4 503876750#0 503876750#1 503876750#2 664929060#0 664929060#1 664929060#2 664929060#3 664929060#4 664929060#5 664929070"/>
    </vehicle>
    <vehicle id="flow1.8" depart="38.16" departLane="random" color="green">
        <route edges="670931467 435222677 231103932#0 231103932#1 1025358701 1025358700 231103921#0 231103921#1 231103921#2 231101546#0 231101546#1 1049505885 1049505884#0 1049505884#1 664929058 231100863#0 231100863#1 231100863#2 231100863#3 1098152913#0 1098152913#1 663076721#0 663076721#1"/>
    </vehicle>
    <vehicle id="flow4.9" depart="40.65" departLane="random" color="green">
        <route edges="343540920#2 343540920#3 343540920#4 343540920#5 343540920#6 343540920#7 1024709877#0 1024709877#1 1024709877#2 1024709877#3 1024709877#4 503876750#0 503876750#1 503876750#2 664929060#0 664929060#1 664929060#2 664929060#3 664929060#4 664929060#5 664929070"/>
    </vehicle>
    <vehicle id="flow5.7" depart="40.75" departLane="random" color="green">
        <route edges="458317566#0 458317566#1 458488905 458488907#0 458488907#1 231107710#0 231107710#1 700183099#0 700183099#1 700183099#2 343540929#0 343540929#1 343540929#2 343540929#3"/>
    </vehicle>
    <vehicle id="flow3.8" depart="43.21" departLane="random" color="green">
        <route edges="43592860#0 43592860#1 43592860#2 357220475#0 357220475#1 357220475#2 357220475#3 357220475#4 357220475#5 370094378#0 370094378#1 370094378#2 370094378#3 316393925#0 316393925#1 316393925#2 316393925#3 371941800#0 371941800#1 371941798#0 371941798#1 371941798#2 371941798#3 371941798#4 371941812#0 371941812#1"/>
    </vehicle>
    <vehicle id="flow4.10" depart="43.22" departLane="random" color="green">
        <route edges="343540920#2 343540920#3 343540920#4 343540920#5 343540920#6 343540920#7 1024709877#0 1024709877#1 1024709877#2 1024709877#3 1024709877#4 503876750#0 503876750#1 503876750#2 664929060#0 664929060#1 664929060#2 664929060#3 664929060#4 664929060#5 664929070"/>
    </vehicle>
    <vehicle id="flow3.9" depart="43.24" departLane="random" color="green">
        <route edges="43592860#0 43592860#1 43592860#2 357220475#0 357220475#1 357220475#2 357220475#3 357220475#4 357220475#5 370094378#0 370094378#1 370094378#2 370094378#3 316393925#0 316393925#1 316393925#2 316393925#3 371941800#0 371941800#1 371941798#0 371941798#1 371941798#2 371941798#3 371941798#4 371941812#0 371941812#1"/>
    </vehicle>
    <vehicle id="flow5.8" depart="46.91" departLane="random" color="green">
        <route edges="458317566#0 458317566#1 458488905 458488907#0 458488907#1 231107710#0 231107710#1 700183099#0 700183099#1 700183099#2 343540929#0 343540929#1 343540929#2 343540929#3"/>
    </vehicle>
    <vehicle id="flow5.9" depart="48.66" departLane="random" color="green">
        <route edges="458317566#0 458317566#1 458488905 458488907#0 458488907#1 231107710#0 231107710#1 700183099#0 700183099#1 700183099#2 343540929#0 343540929#1 343540929#2 343540929#3"/>
    </vehicle>
    <vehicle id="flow4.11" depart="48.71" departLane="random" color="green">
        <route edges="343540920#2 343540920#3 343540920#4 343540920#5 343540920#6 343540920#7 1024709877#0 1024709877#1 1024709877#2 1024709877#3 1024709877#4 503876750#0 503876750#1 503876750#2 664929060#0 664929060#1 664929060#2 664929060#3 664929060#4 664929060#5 664929070"/>
    </vehicle>
    <vehicle id="flow2.10" depart="49.84" departLane="random" color="green">
        <route edges="231102784#0 231102784#1 1025359784#0 1025359784#1 231103928#0 231103928#1 231103928#2 1025358702 1092508367#0 1092508367#1 231103927#0 231103927#1 231103927#2 231103927#3 1049505883#0 1049505883#1 231103925#0 231103925#1 231103925#2 231103925#3 231103925#4 231103925#5 231103925#6 231103925#7 231103925#8"/>
    </vehicle>
    <vehicle id="flow5.10" depart="51.51" departLane="random" color="green">
        <route edges="458317566#0 458317566#1 458488905 458488907#0 458488907#1 231107710#0 231107710#1 700183099#0 700183099#1 700183099#2 343540929#0 343540929#1 343540929#2 343540929#3"/>
    </vehicle>
    <vehicle id="flow2.11" depart="52.36" departLane="random" color="green">
        <route edges="231102784#0 231102784#1 1025359784#0 1025359784#1 231103928#0 231103928#1 231103928#2 1025358702 1092508367#0 1092508367#1 231103927#0 231103927#1 231103927#2 231103927#3 1049505883#0 1049505883#1 231103925#0 231103925#1 231103925#2 231103925#3 231103925#4 231103925#5 231103925#6 231103925#7 231103925#8"/>
    </vehicle>
    <vehicle id="flow4.12" depart="54.52" departLane="random" color="green">
        <route edges="343540920#2 343540920#3 343540920#4 343540920#5 343540920#6 343540920#7 1024709877#0 1024709877#1 1024709877#2 1024709877#3 1024709877#4 503876750#0 503876750#1 503876750#2 664929060#0 664929060#1 664929060#2 664929060#3 664929060#4 664929060#5 664929070"/>
    </vehicle>
    <vehicle id="flow4.13" depart="55.48" departLane="random" color="green">
        <route edges="343540920#2 343540920#3 343540920#4 343540920#5 343540920#6 343540920#7 1024709877#0 1024709877#1 1024709877#2 1024709877#3 1024709877#4 503876750#0 503876750#1 503876750#2 664929060#0 664929060#1 664929060#2 664929060#3 664929060#4 664929060#5 664929070"/>
    </vehicle>
    <vehicle id="flow1.9" depart="55.65" departLane="random" color="green">
        <route edges="670931467 435222677 231103932#0 231103932#1 1025358701 1025358700 231103921#0 231103921#1 231103921#2 231101546#0 231101546#1 1049505885 1049505884#0 1049505884#1 664929058 231100863#0 231100863#1 231100863#2 231100863#3 1098152913#0 1098152913#1 663076721#0 663076721#1"/>
    </vehicle>
    <vehicle id="flow5.11" depart="55.96" departLane="random" color="green">
        <route edges="458317566#0 458317566#1 458488905 458488907#0 458488907#1 231107710#0 231107710#1 700183099#0 700183099#1 700183099#2 343540929#0 343540929#1 343540929#2 343540929#3"/>
    </vehicle>
    <vehicle id="flow4.14" depart="56.09" departLane="random" color="green">
        <route edges="343540920#2 343540920#3 343540920#4 343540920#5 343540920#6 343540920#7 1024709877#0 1024709877#1 1024709877#2 1024709877#3 1024709877#4 503876750#0 503876750#1 503876750#2 664929060#0 664929060#1 664929060#2 664929060#3 664929060#4 664929060#5 664929070"/>
    </vehicle>
    <vehicle id="flow1.10" depart="56.85" departLane="random" color="green">
        <route edges="670931467 435222677 231103932#0 231103932#1 1025358701 1025358700 231103921#0 231103921#1 231103921#2 231101546#0 231101546#1 1049505885 1049505884#0 1049505884#1 664929058 231100863#0 231100863#1 231100863#2 231100863#3 1098152913#0 1098152913#1 663076721#0 663076721#1"/>
    </vehicle>
    <vehicle id="flow2.12" depart="58.77" departLane="random" color="green">
        <route edges="231102784#0 231102784#1 1025359784#0 1025359784#1 231103928#0 231103928#1 231103928#2 1025358702 1092508367#0 1092508367#1 231103927#0 231103927#1 231103927#2 231103927#3 1049505883#0 1049505883#1 231103925#0 231103925#1 231103925#2 231103925#3 231103925#4 231103925#5 231103925#6 231103925#7 231103925#8"/>
    </vehicle>
    <vehicle id="flow5.12" depart="58.99" departLane="random" color="green">
        <route edges="458317566#0 458317566#1 458488905 458488907#0 458488907#1 231107710#0 231107710#1 700183099#0 700183099#1 700183099#2 343540929#0 343540929#1 343540929#2 343540929#3"/>
    </vehicle>
    <vehicle id="flow5.13" depart="59.27" departLane="random" color="green">
        <route edges="458317566#0 458317566#1 458488905 458488907#0 458488907#1 231107710#0 231107710#1 700183099#0 700183099#1 700183099#2 343540929#0 343540929#1 343540929#2 343540929#3"/>
    </vehicle>
    <vehicle id="flow2.13" depart="60.23" departLane="random" color="green">
        <route edges="231102784#0 231102784#1 1025359784#0 1025359784#1 231103928#0 231103928#1 231103928#2 1025358702 1092508367#0 1092508367#1 231103927#0 231103927#1 231103927#2 231103927#3 1049505883#0 1049505883#1 231103925#0 231103925#1 231103925#2 231103925#3 231103925#4 231103925#5 231103925#6 231103925#7 231103925#8"/>
    </vehicle>
    <vehicle id="flow2.14" depart="61.96" departLane="random" color="green">
        <route edges="231102784#0 231102784#1 1025359784#0 1025359784#1 231103928#0 231103928#1 231103928#2 1025358702 1092508367#0 1092508367#1 231103927#0 231103927#1 231103927#2 231103927#3 1049505883#0 1049505883#1 231103925#0 231103925#1 231103925#2 231103925#3 231103925#4 231103925#5 231103925#6 231103925#7 231103925#8"/>
    </vehicle>
    <vehicle id="flow1.11" depart="66.58" departLane="random" color="green">
        <route edges="670931467 435222677 231103932#0 231103932#1 1025358701 1025358700 231103921#0 231103921#1 231103921#2 231101546#0 231101546#1 1049505885 1049505884#0 1049505884#1 664929058 231100863#0 231100863#1 231100863#2 231100863#3 1098152913#0 1098152913#1 663076721#0 663076721#1"/>
    </vehicle>
    <vehicle id="flow4.15" depart="66.88" departLane="random" color="green">
        <route edges="343540920#2 343540920#3 343540920#4 343540920#5 343540920#6 343540920#7 1024709877#0 1024709877#1 1024709877#2 1024709877#3 1024709877#4 503876750#0 503876750#1 503876750#2 664929060#0 664929060#1 664929060#2 664929060#3 664929060#4 664929060#5 664929070"/>
    </vehicle>
    <vehicle id="flow2.15" depart="68.48" departLane="random" color="green">
        <route edges="231102784#0 231102784#1 1025359784#0 1025359784#1 231103928#0 231103928#1 231103928#2 1025358702 1092508367#0 1092508367#1 231103927#0 231103927#1 231103927#2 231103927#3 1049505883#0 1049505883#1 231103925#0 231103925#1 231103925#2 231103925#3 231103925#4 231103925#5 231103925#6 231103925#7 231103925#8"/>
    </vehicle>
    <vehicle id="flow4.16" depart="69.48" departLane="random" color="green">
        <route edges="343540920#2 343540920#3 343540920#4 343540920#5 343540920#6 343540920#7 1024709877#0 1024709877#1 1024709877#2 1024709877#3 1024709877#4 503876750#0 503876750#1 503876750#2 664929060#0 664929060#1 664929060#2 664929060#3 664929060#4 664929060#5 664929070"/>
    </vehicle>
    <vehicle id="flow3.10" depart="69.49" departLane="random" color="green">
        <route edges="43592860#0 43592860#1 43592860#2 357220475#0 357220475#1 357220475#2 357220475#3 357220475#4 357220475#5 370094378#0 370094378#1 370094378#2 370094378#3 316393925#0 316393925#1 316393925#2 316393925#3 371941800#0 371941800#1 371941798#0 371941798#1 371941798#2 371941798#3 371941798#4 371941812#0 371941812#1"/>
    </vehicle>
    <vehicle id="flow3.11" depart="69.59" departLane="random" color="green">
        <route edges="43592860#0 43592860#1 43592860#2 357220475#0 357220475#1 357220475#2 357220475#3 357220475#4 357220475#5 370094378#0 370094378#1 370094378#2 370094378#3 316393925#0 316393925#1 316393925#2 316393925#3 371941800#0 371941800#1 371941798#0 371941798#1 371941798#2 371941798#3 371941798#4 371941812#0 371941812#1"/>
    </vehicle>
    <vehicle id="flow2.16" depart="72.24" departLane="random" color="green">
        <route edges="231102784#0 231102784#1 1025359784#0 1025359784#1 231103928#0 231103928#1 231103928#2 1025358702 1092508367#0 1092508367#1 231103927#0 231103927#1 231103927#2 231103927#3 1049505883#0 1049505883#1 231103925#0 231103925#1 231103925#2 231103925#3 231103925#4 231103925#5 231103925#6 231103925#7 231103925#8"/>
    </vehicle>
    <vehicle id="flow5.14" depart="72.60" departLane="random" color="green">
        <route edges="458317566#0 458317566#1 458488905 458488907#0 458488907#1 231107710#0 231107710#1 700183099#0 700183099#1 700183099#2 343540929#0 343540929#1 343540929#2 343540929#3"/>
    </vehicle>
    <vehicle id="flow4.17" depart="72.68" departLane="random" color="green">
        <route edges="343540920#2 343540920#3 343540920#4 343540920#5 343540920#6 343540920#7 1024709877#0 1024709877#1 1024709877#2 1024709877#3 1024709877#4 503876750#0 503876750#1 503876750#2 664929060#0 664929060#1 664929060#2 664929060#3 664929060#4 664929060#5 664929070"/>
    </vehicle>
    <vehicle id="flow2.17" depart="73.88" departLane="random" color="green">
        <route edges="231102784#0 231102784#1 1025359784#0 1025359784#1 231103928#0 231103928#1 231103928#2 1025358702 1092508367#0 1092508367#1 231103927#0 231103927#1 231103927#2 231103927#3 1049505883#0 1049505883#1 231103925#0 231103925#1 231103925#2 231103925#3 231103925#4 231103925#5 231103925#6 231103925#7 231103925#8"/>
    </vehicle>
    <vehicle id="flow1.12" depart="75.18" departLane="random" color="green">
        <route edges="670931467 435222677 231103932#0 231103932#1 1025358701 1025358700 231103921#0 231103921#1 231103921#2 231101546#0 231101546#1 1049505885 1049505884#0 1049505884#1 664929058 231100863#0 231100863#1 231100863#2 231100863#3 1098152913#0 1098152913#1 663076721#0 663076721#1"/>
    </vehicle>
    <vehicle id="flow5.15" depart="75.69" departLane="random" color="green">
        <route edges="458317566#0 458317566#1 458488905 458488907#0 458488907#1 231107710#0 231107710#1 700183099#0 700183099#1 700183099#2 343540929#0 343540929#1 343540929#2 343540929#3"/>
    </vehicle>
    <vehicle id="flow1.13" depart="75.85" departLane="random" color="green">
        <route edges="670931467 435222677 231103932#0 231103932#1 1025358701 1025358700 231103921#0 231103921#1 231103921#2 231101546#0 231101546#1 1049505885 1049505884#0 1049505884#1 664929058 231100863#0 231100863#1 231100863#2 231100863#3 1098152913#0 1098152913#1 663076721#0 663076721#1"/>