<?xml version="1.0" encoding="UTF-8"?>

<!-- generated on 2022-10-16 15:34:50 by Eclipse SUMO netconvert Version 1.14.1
<configuration xmlns:xsi="http://www.w3.org/2001/XMLSchema-instance" xsi:noNamespaceSchemaLocation="http://sumo.dlr.de/xsd/netconvertConfiguration.xsd">

    <input>
        <osm-files value="curitibanew.osm"/>
    </input>

    <output>
        <output-file value="curitibanew.net.xml"/>
    </output>

    <projection>
        <proj.utm value="true"/>
    </projection>

</configuration>
-->

<net version="1.9" junctionCornerDetail="5" limitTurnSpeed="5.50" xmlns:xsi="http://www.w3.org/2001/XMLSchema-instance" xsi:noNamespaceSchemaLocation="http://sumo.dlr.de/xsd/net_file.xsd">

    <location netOffset="-672917.30,2816073.80" convBoundary="0.00,0.00,2071.00,1797.51" origBoundary="-49.280288,-25.451486,-49.259786,-25.435287" projParameter="+proj=utm +zone=22 +ellps=WGS84 +datum=WGS84 +units=m +no_defs"/>

    <type id="highway.bridleway" priority="1" numLanes="1" speed="2.78" allow="pedestrian" oneway="1" width="2.00"/>
    <type id="highway.bus_guideway" priority="1" numLanes="1" speed="27.78" allow="bus" oneway="1"/>
    <type id="highway.cycleway" priority="1" numLanes="1" speed="5.56" allow="bicycle" oneway="0" width="1.00"/>
    <type id="highway.footway" priority="1" numLanes="1" speed="2.78" allow="pedestrian" oneway="1" width="2.00"/>
    <type id="highway.ford" priority="1" numLanes="1" speed="2.78" allow="army" oneway="0"/>
    <type id="highway.living_street" priority="2" numLanes="1" speed="2.78" disallow="tram rail_urban rail rail_electric rail_fast ship" oneway="0"/>
    <type id="highway.motorway" priority="14" numLanes="2" speed="39.44" allow="private emergency authority army vip passenger hov taxi bus coach delivery truck trailer motorcycle evehicle custom1 custom2" oneway="1"/>
    <type id="highway.motorway_link" priority="9" numLanes="1" speed="22.22" allow="private emergency authority army vip passenger hov taxi bus coach delivery truck trailer motorcycle evehicle custom1 custom2" oneway="1"/>
    <type id="highway.path" priority="1" numLanes="1" speed="5.56" allow="pedestrian bicycle" oneway="0" width="2.00"/>
    <type id="highway.pedestrian" priority="1" numLanes="1" speed="2.78" allow="pedestrian" oneway="1" width="2.00"/>
    <type id="highway.primary" priority="12" numLanes="2" speed="27.78" disallow="tram rail_urban rail rail_electric rail_fast ship" oneway="0"/>
    <type id="highway.primary_link" priority="7" numLanes="1" speed="22.22" disallow="tram rail_urban rail rail_electric rail_fast ship" oneway="0"/>
    <type id="highway.raceway" priority="15" numLanes="2" speed="83.33" allow="vip" oneway="0"/>
    <type id="highway.residential" priority="3" numLanes="1" speed="13.89" disallow="tram rail_urban rail rail_electric rail_fast ship" oneway="0"/>
    <type id="highway.secondary" priority="11" numLanes="1" speed="27.78" disallow="tram rail_urban rail rail_electric rail_fast ship" oneway="0"/>
    <type id="highway.secondary_link" priority="6" numLanes="1" speed="22.22" disallow="tram rail_urban rail rail_electric rail_fast ship" oneway="0"/>
    <type id="highway.service" priority="1" numLanes="1" speed="5.56" allow="pedestrian delivery bicycle" oneway="0"/>
    <type id="highway.stairs" priority="1" numLanes="1" speed="1.39" allow="pedestrian" oneway="1" width="2.00"/>
    <type id="highway.step" priority="1" numLanes="1" speed="1.39" allow="pedestrian" oneway="1" width="2.00"/>
    <type id="highway.steps" priority="1" numLanes="1" speed="1.39" allow="pedestrian" oneway="1" width="2.00"/>
    <type id="highway.tertiary" priority="10" numLanes="1" speed="22.22" disallow="tram rail_urban rail rail_electric rail_fast ship" oneway="0"/>
    <type id="highway.tertiary_link" priority="5" numLanes="1" speed="22.22" disallow="tram rail_urban rail rail_electric rail_fast ship" oneway="0"/>
    <type id="highway.track" priority="1" numLanes="1" speed="5.56" allow="pedestrian motorcycle moped bicycle" oneway="0"/>
    <type id="highway.trunk" priority="13" numLanes="2" speed="27.78" disallow="pedestrian bicycle tram rail_urban rail rail_electric rail_fast ship" oneway="0"/>
    <type id="highway.trunk_link" priority="8" numLanes="1" speed="22.22" disallow="pedestrian bicycle tram rail_urban rail rail_electric rail_fast ship" oneway="0"/>
    <type id="highway.unclassified" priority="4" numLanes="1" speed="13.89" disallow="tram rail_urban rail rail_electric rail_fast ship" oneway="0"/>
    <type id="highway.unsurfaced" priority="1" numLanes="1" speed="8.33" disallow="tram rail_urban rail rail_electric rail_fast ship" oneway="0"/>
    <type id="railway.highspeed" priority="21" numLanes="1" speed="69.44" allow="rail_fast" oneway="1"/>
    <type id="railway.light_rail" priority="19" numLanes="1" speed="27.78" allow="rail_urban" oneway="1"/>
    <type id="railway.preserved" priority="16" numLanes="1" speed="27.78" allow="rail" oneway="1"/>
    <type id="railway.rail" priority="20" numLanes="1" speed="44.44" allow="rail" oneway="1"/>
    <type id="railway.subway" priority="18" numLanes="1" speed="27.78" allow="rail_urban" oneway="1"/>
    <type id="railway.tram" priority="17" numLanes="1" speed="13.89" allow="tram" oneway="1"/>

    <edge id=":1227009248_0" function="internal">
        <lane id=":1227009248_0_0" index="0" allow="bus delivery bicycle" speed="11.11" length="17.68" shape="1059.44,1398.21 1043.08,1391.53"/>
    </edge>
    <edge id=":1227009248_1" function="internal">
        <lane id=":1227009248_1_0" index="0" allow="bus delivery bicycle" speed="6.92" length="2.82" shape="1059.44,1398.21 1057.32,1396.86 1057.16,1396.61"/>
    </edge>
    <edge id=":1227009248_2" function="internal">
        <lane id=":1227009248_2_0" index="0" allow="bus delivery bicycle" speed="3.65" length="1.44" shape="1059.44,1398.21 1058.63,1397.02"/>
    </edge>
    <edge id=":1227009248_11" function="internal">
        <lane id=":1227009248_11_0" index="0" allow="bus delivery bicycle" speed="6.92" length="7.49" shape="1057.16,1396.61 1056.17,1394.96 1056.02,1392.51 1056.85,1389.50"/>
    </edge>
    <edge id=":1227009248_12" function="internal">
        <lane id=":1227009248_12_0" index="0" allow="bus delivery bicycle" speed="3.65" length="3.23" shape="1058.63,1397.02 1058.57,1396.13 1059.24,1395.54 1060.65,1395.25"/>
    </edge>
    <edge id=":1227009248_3" function="internal">
        <lane id=":1227009248_3_0" index="0" allow="bus delivery bicycle" speed="6.05" length="7.68" shape="1044.28,1388.57 1046.65,1389.27 1048.54,1389.26 1049.96,1388.54 1050.92,1387.11"/>
    </edge>
    <edge id=":1227009248_4" function="internal">
        <lane id=":1227009248_4_0" index="0" allow="bus delivery bicycle" speed="11.11" length="17.68" shape="1044.28,1388.57 1060.65,1395.25"/>
    </edge>
    <edge id=":1227009248_5" function="internal">
        <lane id=":1227009248_5_0" index="0" allow="bus delivery bicycle" speed="3.65" length="1.44" shape="1044.28,1388.57 1045.09,1389.76"/>
    </edge>
    <edge id=":1227009248_13" function="internal">
        <lane id=":1227009248_13_0" index="0" allow="bus delivery bicycle" speed="3.65" length="3.23" shape="1045.09,1389.76 1045.16,1390.65 1044.49,1391.24 1043.08,1391.53"/>
    </edge>
    <edge id=":1227009248_6" function="internal">
        <lane id=":1227009248_6_0" index="0" allow="bus delivery bicycle" speed="6.01" length="7.44" shape="1047.07,1396.86 1047.28,1395.33 1046.69,1393.93 1045.28,1392.66 1043.08,1391.53"/>
    </edge>
    <edge id=":1227009248_7" function="internal">
        <lane id=":1227009248_7_0" index="0" disallow="tram rail_urban rail rail_electric rail_fast ship" speed="27.78" length="10.43" shape="1047.07,1396.86 1050.92,1387.11"/>
        <lane id=":1227009248_7_1" index="1" disallow="tram rail_urban rail rail_electric rail_fast ship" speed="27.78" length="10.43" shape="1050.06,1398.01 1053.89,1388.31"/>
        <lane id=":1227009248_7_2" index="2" disallow="tram rail_urban rail rail_electric rail_fast ship" speed="27.78" length="10.43" shape="1053.05,1399.16 1056.85,1389.50"/>
    </edge>
    <edge id=":1227009248_10" function="internal">
        <lane id=":1227009248_10_0" index="0" allow="bus delivery bicycle" speed="6.70" length="9.78" shape="1053.05,1399.16 1054.39,1396.64 1056.11,1395.15 1058.20,1394.69 1060.65,1395.25"/>
    </edge>
    <edge id=":1227009262_0" function="internal">
        <lane id=":1227009262_0_0" index="0" allow="pedestrian bus delivery bicycle" speed="3.65" length="4.67" shape="1805.72,71.52 1806.93,70.73 1807.82,70.67 1808.40,71.35 1808.66,72.77"/>
    </edge>
    <edge id=":1227009263_0" function="internal">
        <lane id=":1227009263_0_0" index="0" allow="pedestrian bus delivery bicycle" speed="5.56" length="0.10" shape="1621.51,512.81 1621.51,512.81"/>
    </edge>
    <edge id=":1227009263_1" function="internal">
        <lane id=":1227009263_1_0" index="0" allow="pedestrian bus delivery bicycle" speed="5.56" length="0.10" shape="1618.57,511.55 1618.57,511.55"/>
    </edge>
    <edge id=":1228410773_0" function="internal">
        <lane id=":1228410773_0_0" index="0" disallow="tram rail_urban rail rail_electric rail_fast ship" speed="3.65" length="4.67" shape="1262.95,1653.35 1261.75,1654.15 1260.86,1654.21 1260.28,1653.53 1260.00,1652.12"/>
    </edge>
    <edge id=":1228410844_0" function="internal">
        <lane id=":1228410844_0_0" index="0" allow="bus delivery bicycle" speed="11.11" length="11.21" shape="753.15,1273.32 742.78,1269.07"/>
    </edge>
    <edge id=":1228410844_1" function="internal">
        <lane id=":1228410844_1_0" index="0" allow="bus delivery bicycle" speed="7.01" length="2.72" shape="753.15,1273.32 751.08,1271.98 750.96,1271.75"/>
    </edge>
    <edge id=":1228410844_2" function="internal">
        <lane id=":1228410844_2_0" index="0" allow="bus delivery bicycle" speed="3.65" length="1.44" shape="753.15,1273.32 752.34,1272.13"/>
    </edge>
    <edge id=":1228410844_9" function="internal">
        <lane id=":1228410844_9_0" index="0" allow="bus delivery bicycle" speed="7.01" length="7.78" shape="750.96,1271.75 749.99,1270.03 749.87,1267.49 750.72,1264.34"/>
    </edge>
    <edge id=":1228410844_10" function="internal">
        <lane id=":1228410844_10_0" index="0" allow="bus delivery bicycle" speed="3.65" length="3.23" shape="752.34,1272.13 752.27,1271.23 752.95,1270.65 754.36,1270.36"/>
    </edge>
    <edge id=":1228410844_3" function="internal">
        <lane id=":1228410844_3_0" index="0" allow="bus delivery bicycle" speed="6.10" length="7.92" shape="743.99,1266.11 746.37,1266.80 748.28,1266.74 749.73,1265.92 750.72,1264.34"/>
    </edge>
    <edge id=":1228410844_4" function="internal">
        <lane id=":1228410844_4_0" index="0" allow="bus delivery bicycle" speed="11.11" length="11.21" shape="743.99,1266.11 754.36,1270.36"/>
    </edge>
    <edge id=":1228410844_5" function="internal">
        <lane id=":1228410844_5_0" index="0" allow="bus delivery bicycle" speed="3.65" length="1.44" shape="743.99,1266.11 744.80,1267.31"/>
    </edge>
    <edge id=":1228410844_11" function="internal">
        <lane id=":1228410844_11_0" index="0" allow="bus delivery bicycle" speed="3.65" length="3.23" shape="744.80,1267.31 744.86,1268.20 744.19,1268.79 742.78,1269.07"/>
    </edge>
    <edge id=":1228410844_6" function="internal">
        <lane id=":1228410844_6_0" index="0" allow="bus delivery bicycle" speed="5.87" length="7.26" shape="746.68,1274.23 746.92,1272.77 746.36,1271.43 744.97,1270.19 742.78,1269.07"/>
    </edge>
    <edge id=":1228410844_7" function="internal">
        <lane id=":1228410844_7_0" index="0" disallow="tram rail_urban rail rail_electric rail_fast ship" speed="22.22" length="10.68" shape="746.68,1274.23 750.72,1264.34"/>
    </edge>
    <edge id=":1228410844_8" function="internal">
        <lane id=":1228410844_8_0" index="0" allow="bus delivery bicycle" speed="6.78" length="9.75" shape="746.68,1274.23 748.13,1271.75 749.89,1270.28 751.97,1269.82 754.36,1270.36"/>
    </edge>
    <edge id=":1229554467_0" function="internal">
        <lane id=":1229554467_0_0" index="0" allow="pedestrian bus delivery bicycle" speed="6.27" length="8.29" shape="706.53,1635.54 705.85,1637.93 705.97,1639.88 706.90,1641.42 708.63,1642.53"/>
        <lane id=":1229554467_0_1" index="1" allow="pedestrian bus delivery bicycle" speed="7.14" length="11.06" shape="706.53,1635.54 705.31,1639.22 705.05,1642.10 705.74,1644.19 707.39,1645.48"/>
    </edge>
    <edge id=":1229554467_2" function="internal">
        <lane id=":1229554467_2_0" index="0" allow="pedestrian bus delivery bicycle" speed="3.65" length="1.44" shape="706.53,1635.54 705.33,1636.34"/>
    </edge>
    <edge id=":1229554467_8" function="internal">
        <lane id=":1229554467_8_0" index="0" allow="pedestrian bus delivery bicycle" speed="3.65" length="3.23" shape="705.33,1636.34 704.43,1636.41 703.85,1635.73 703.57,1634.31"/>
    </edge>
    <edge id=":1229554467_3" function="internal">
        <lane id=":1229554467_3_0" index="0" allow="pedestrian bus delivery bicycle" speed="6.50" length="9.03" shape="696.25,1637.31 698.65,1637.94 700.66,1637.65 702.31,1636.44 703.57,1634.31"/>
    </edge>
    <edge id=":1229554467_4" function="internal">
        <lane id=":1229554467_4_0" index="0" disallow="tram rail_urban rail rail_electric rail_fast ship" speed="11.11" length="13.44" shape="696.25,1637.31 708.63,1642.53"/>
        <lane id=":1229554467_4_1" index="1" disallow="tram rail_urban rail rail_electric rail_fast ship" speed="11.11" length="13.44" shape="695.01,1640.26 707.39,1645.48"/>
        <lane id=":1229554467_4_2" index="2" disallow="tram rail_urban rail rail_electric rail_fast ship" speed="11.11" length="13.44" shape="693.76,1643.21 706.15,1648.43"/>
        <lane id=":1229554467_4_3" index="3" disallow="tram rail_urban rail rail_electric rail_fast ship" speed="11.11" length="13.44" shape="692.52,1646.16 704.91,1651.38"/>
    </edge>
    <edge id=":1229556438_0" function="internal">
        <lane id=":1229556438_0_0" index="0" disallow="tram rail_urban rail rail_electric rail_fast ship" speed="10.01" length="22.64" shape="1325.33,1513.69 1323.52,1516.62 1320.42,1523.48 1317.42,1530.59 1315.92,1534.25"/>
    </edge>
    <edge id=":1229556438_1" function="internal">
        <lane id=":1229556438_1_0" index="0" disallow="tram rail_urban rail rail_electric rail_fast ship" speed="8.33" length="12.83" shape="1325.33,1513.69 1313.44,1508.87"/>
    </edge>
    <edge id=":1229556438_2" function="internal">
        <lane id=":1229556438_2_0" index="0" allow="bus delivery bicycle" speed="12.50" length="25.98" shape="1321.43,1508.46 1312.97,1533.02"/>
    </edge>
    <edge id=":1229556438_3" function="internal">
        <lane id=":1229556438_3_0" index="0" allow="bus delivery bicycle" speed="6.45" length="6.11" shape="1321.43,1508.46 1320.44,1509.65 1318.78,1510.12 1316.44,1509.86 1315.98,1509.71"/>
    </edge>
    <edge id=":1229556438_6" function="internal">
        <lane id=":1229556438_6_0" index="0" allow="bus delivery bicycle" speed="6.45" length="2.68" shape="1315.98,1509.71 1313.44,1508.87"/>
    </edge>
    <edge id=":1229556438_4" function="internal">
        <lane id=":1229556438_4_0" index="0" disallow="tram rail_urban rail rail_electric rail_fast ship" speed="10.30" length="24.36" shape="1310.01,1531.80 1313.46,1522.56 1315.18,1515.66 1315.17,1511.10 1313.44,1508.87"/>
    </edge>
    <edge id=":1229556438_5" function="internal">
        <lane id=":1229556438_5_0" index="0" disallow="tram rail_urban rail rail_electric rail_fast ship" speed="3.65" length="1.44" shape="1310.01,1531.80 1311.21,1531.00"/>
    </edge>
    <edge id=":1229556438_7" function="internal">
        <lane id=":1229556438_7_0" index="0" disallow="tram rail_urban rail rail_electric rail_fast ship" speed="3.65" length="3.23" shape="1311.21,1531.00 1312.10,1530.93 1312.69,1531.61 1312.97,1533.02"/>
    </edge>
    <edge id=":1229557431_0" function="internal">
        <lane id=":1229557431_0_0" index="0" disallow="tram rail_urban rail rail_electric rail_fast ship" speed="8.33" length="5.00" shape="1330.69,1515.87 1326.06,1513.99"/>
    </edge>
    <edge id=":1229557454_0" function="internal">
        <lane id=":1229557454_0_0" index="0" allow="bus delivery bicycle" speed="11.11" length="5.06" shape="1333.39,1509.48 1328.69,1507.58"/>
    </edge>
    <edge id=":1229557454_1" function="internal">
        <lane id=":1229557454_1_0" index="0" allow="bus delivery bicycle" speed="3.65" length="1.44" shape="1333.39,1509.48 1332.58,1508.29"/>
    </edge>
    <edge id=":1229557454_4" function="internal">
        <lane id=":1229557454_4_0" index="0" allow="bus delivery bicycle" speed="3.65" length="3.23" shape="1332.58,1508.29 1332.51,1507.40 1333.18,1506.81 1334.59,1506.52"/>
    </edge>
    <edge id=":1229557454_2" function="internal">
        <lane id=":1229557454_2_0" index="0" allow="bus delivery bicycle" speed="11.11" length="5.06" shape="1329.90,1504.61 1334.59,1506.52"/>
    </edge>
    <edge id=":1229557454_3" function="internal">
        <lane id=":1229557454_3_0" index="0" allow="bus delivery bicycle" speed="3.65" length="1.44" shape="1329.90,1504.61 1330.71,1505.80"/>
    </edge>
    <edge id=":1229557454_5" function="internal">
        <lane id=":1229557454_5_0" index="0" allow="bus delivery bicycle" speed="3.65" length="3.23" shape="1330.71,1505.80 1330.78,1506.70 1330.11,1507.29 1328.69,1507.58"/>
    </edge>
    <edge id=":1229557460_0" function="internal">
        <lane id=":1229557460_0_0" index="0" disallow="tram rail_urban rail rail_electric rail_fast ship" speed="8.33" length="5.00" shape="1332.31,1498.94 1336.94,1500.84"/>
    </edge>
    <edge id=":1319331816_0" function="internal">
        <lane id=":1319331816_0_0" index="0" disallow="tram rail_urban rail rail_electric rail_fast ship" speed="6.55" length="9.08" shape="1361.94,1140.09 1359.53,1139.48 1357.49,1139.79 1355.84,1141.01 1354.56,1143.14"/>
    </edge>
    <edge id=":1319331816_1" function="internal">
        <lane id=":1319331816_1_0" index="0" disallow="tram rail_urban rail rail_electric rail_fast ship" speed="15.28" length="11.98" shape="1361.94,1140.09 1350.84,1135.57"/>
        <lane id=":1319331816_1_1" index="1" disallow="tram rail_urban rail rail_electric rail_fast ship" speed="15.28" length="11.98" shape="1363.14,1137.12 1352.05,1132.61"/>
    </edge>
    <edge id=":1319331816_3" function="internal">
        <lane id=":1319331816_3_0" index="0" disallow="tram rail_urban rail rail_electric rail_fast ship" speed="11.11" length="13.64" shape="1359.86,1130.58 1354.56,1143.14"/>
        <lane id=":1319331816_3_1" index="1" disallow="tram rail_urban rail rail_electric rail_fast ship" speed="11.11" length="13.64" shape="1356.91,1129.33 1351.61,1141.90"/>
    </edge>
    <edge id=":1319331816_5" function="internal">
        <lane id=":1319331816_5_0" index="0" disallow="tram rail_urban rail rail_electric rail_fast ship" speed="5.69" length="6.59" shape="1356.91,1129.33 1355.90,1131.22 1354.75,1132.40 1353.46,1132.86 1352.05,1132.61"/>
    </edge>
    <edge id=":1319331827_0" function="internal">
        <lane id=":1319331827_0_0" index="0" disallow="tram rail_urban rail rail_electric rail_fast ship" speed="13.89" length="17.53" shape="1191.32,1070.75 1175.08,1064.15"/>
        <lane id=":1319331827_0_1" index="1" disallow="tram rail_urban rail rail_electric rail_fast ship" speed="13.89" length="17.53" shape="1192.53,1067.78 1176.28,1061.18"/>
    </edge>
    <edge id=":1319331827_2" function="internal">
        <lane id=":1319331827_2_0" index="0" disallow="tram rail_urban rail rail_electric rail_fast ship" speed="6.56" length="9.09" shape="1178.18,1071.51 1178.76,1069.07 1178.43,1067.03 1177.21,1065.39 1175.08,1064.15"/>
    </edge>
    <edge id=":1319331827_3" function="internal">
        <lane id=":1319331827_3_0" index="0" disallow="tram rail_urban rail rail_electric rail_fast ship" speed="27.78" length="10.49" shape="1178.18,1071.51 1182.05,1061.71"/>
        <lane id=":1319331827_3_1" index="1" disallow="tram rail_urban rail rail_electric rail_fast ship" speed="27.78" length="10.49" shape="1181.16,1072.67 1185.02,1062.92"/>
        <lane id=":1319331827_3_2" index="2" disallow="tram rail_urban rail rail_electric rail_fast ship" speed="27.78" length="10.49" shape="1184.14,1073.84 1187.98,1064.12"/>
    </edge>
    <edge id=":1319331831_0" function="internal">
        <lane id=":1319331831_0_0" index="0" disallow="tram rail_urban rail rail_electric rail_fast ship" speed="13.89" length="11.27" shape="671.46,859.44 661.03,855.20"/>
        <lane id=":1319331831_0_1" index="1" disallow="tram rail_urban rail rail_electric rail_fast ship" speed="13.89" length="11.27" shape="672.67,856.48 662.23,852.24"/>
    </edge>
    <edge id=":1319331831_2" function="internal">
        <lane id=":1319331831_2_0" index="0" disallow="tram rail_urban rail rail_electric rail_fast ship" speed="6.49" length="9.03" shape="664.06,862.50 664.69,860.10 664.39,858.08 663.17,856.45 661.03,855.20"/>
    </edge>
    <edge id=":1319331831_3" function="internal">
        <lane id=":1319331831_3_0" index="0" disallow="tram rail_urban rail rail_electric rail_fast ship" speed="27.78" length="13.08" shape="664.06,862.50 669.11,850.43"/>
    </edge>
    <edge id=":1319331832_0" function="internal">
        <lane id=":1319331832_0_0" index="0" disallow="tram rail_urban rail rail_electric rail_fast ship" speed="6.49" length="9.03" shape="780.89,903.92 778.49,903.32 776.47,903.64 774.85,904.87 773.61,907.02"/>
    </edge>
    <edge id=":1319331832_1" function="internal">
        <lane id=":1319331832_1_0" index="0" disallow="tram rail_urban rail rail_electric rail_fast ship" speed="15.28" length="14.40" shape="780.89,903.92 767.55,898.50"/>
        <lane id=":1319331832_1_1" index="1" disallow="tram rail_urban rail rail_electric rail_fast ship" speed="15.28" length="14.40" shape="782.09,900.96 768.75,895.53"/>
    </edge>
    <edge id=":1319331832_3" function="internal">
        <lane id=":1319331832_3_0" index="0" disallow="tram rail_urban rail rail_electric rail_fast ship" speed="6.53" length="9.06" shape="770.64,905.83 771.23,903.41 770.91,901.38 769.68,899.75 767.55,898.50"/>
    </edge>
    <edge id=":1319331832_4" function="internal">
        <lane id=":1319331832_4_0" index="0" disallow="tram rail_urban rail rail_electric rail_fast ship" speed="3.65" length="4.67" shape="770.64,905.83 771.83,905.01 772.72,904.94 773.31,905.61 773.61,907.02"/>
    </edge>
    <edge id=":1319331835_0" function="internal">
        <lane id=":1319331835_0_0" index="0" disallow="tram rail_urban rail rail_electric rail_fast ship" speed="6.51" length="9.03" shape="985.66,987.16 983.26,986.56 981.24,986.87 979.61,988.10 978.36,990.24"/>
    </edge>
    <edge id=":1319331835_1" function="internal">
        <lane id=":1319331835_1_0" index="0" disallow="tram rail_urban rail rail_electric rail_fast ship" speed="13.89" length="11.20" shape="985.66,987.16 975.29,982.94"/>
        <lane id=":1319331835_1_1" index="1" disallow="tram rail_urban rail rail_electric rail_fast ship" speed="13.89" length="11.20" shape="986.87,984.19 976.49,979.98"/>
    </edge>
    <edge id=":1319331835_3" function="internal">
        <lane id=":1319331835_3_0" index="0" disallow="tram rail_urban rail rail_electric rail_fast ship" speed="22.22" length="13.33" shape="983.39,977.89 978.36,990.24"/>
    </edge>
    <edge id=":1319331835_4" function="internal">
        <lane id=":1319331835_4_0" index="0" disallow="tram rail_urban rail rail_electric rail_fast ship" speed="6.23" length="8.19" shape="983.39,977.89 982.32,979.59 980.81,980.51 978.87,980.64 976.49,979.98"/>
    </edge>
    <edge id=":1319331844_0" function="internal">
        <lane id=":1319331844_0_0" index="0" disallow="tram rail_urban rail rail_electric rail_fast ship" speed="15.28" length="11.28" shape="891.41,948.85 880.96,944.60"/>
        <lane id=":1319331844_0_1" index="1" disallow="tram rail_urban rail rail_electric rail_fast ship" speed="15.28" length="11.28" shape="892.62,945.88 882.17,941.64"/>
    </edge>
    <edge id=":1319331844_2" function="internal">
        <lane id=":1319331844_2_0" index="0" disallow="tram rail_urban rail rail_electric rail_fast ship" speed="6.48" length="9.03" shape="884.00,951.90 884.62,949.50 884.32,947.48 883.11,945.85 880.96,944.60"/>
    </edge>
    <edge id=":1319331844_3" function="internal">
        <lane id=":1319331844_3_0" index="0" disallow="tram rail_urban rail rail_electric rail_fast ship" speed="22.22" length="13.27" shape="884.00,951.90 889.14,939.66"/>
    </edge>
    <edge id=":1319331846_0" function="internal">
        <lane id=":1319331846_0_0" index="0" disallow="tram rail_urban rail rail_electric rail_fast ship" speed="6.51" length="9.03" shape="530.11,801.99 527.70,801.39 525.69,801.71 524.06,802.93 522.81,805.07"/>
    </edge>
    <edge id=":1319331846_1" function="internal">
        <lane id=":1319331846_1_0" index="0" disallow="tram rail_urban rail rail_electric rail_fast ship" speed="13.89" length="17.61" shape="530.11,801.99 513.79,795.36"/>
        <lane id=":1319331846_1_1" index="1" disallow="tram rail_urban rail rail_electric rail_fast ship" speed="13.89" length="17.61" shape="531.31,799.03 515.00,792.40"/>
    </edge>
    <edge id=":1319331846_3" function="internal">
        <lane id=":1319331846_3_0" index="0" disallow="tram rail_urban rail rail_electric rail_fast ship" speed="27.78" length="12.96" shape="527.68,793.06 522.81,805.07"/>
        <lane id=":1319331846_3_1" index="1" disallow="tram rail_urban rail rail_electric rail_fast ship" speed="27.78" length="12.96" shape="524.71,791.86 519.85,803.87"/>
        <lane id=":1319331846_3_2" index="2" disallow="tram rail_urban rail rail_electric rail_fast ship" speed="27.78" length="12.96" shape="521.75,790.66 516.88,802.67"/>
    </edge>
    <edge id=":1319331846_6" function="internal">
        <lane id=":1319331846_6_0" index="0" disallow="tram rail_urban rail rail_electric rail_fast ship" speed="6.13" length="7.89" shape="521.75,790.66 520.74,792.21 519.28,793.02 517.37,793.08 515.00,792.40"/>
    </edge>
    <edge id=":1319331848_0" function="internal">
        <lane id=":1319331848_0_0" index="0" disallow="tram rail_urban rail rail_electric rail_fast ship" speed="6.52" length="9.06" shape="1606.79,1239.60 1604.39,1239.00 1602.36,1239.31 1600.72,1240.54 1599.46,1242.68"/>
    </edge>
    <edge id=":1319331848_1" function="internal">
        <lane id=":1319331848_1_0" index="0" disallow="tram rail_urban rail rail_electric rail_fast ship" speed="13.89" length="14.42" shape="1606.79,1239.60 1593.44,1234.17"/>
        <lane id=":1319331848_1_1" index="1" disallow="tram rail_urban rail rail_electric rail_fast ship" speed="13.89" length="14.42" shape="1608.00,1236.63 1594.64,1231.20"/>
    </edge>
    <edge id=":1319331848_3" function="internal">
        <lane id=":1319331848_3_0" index="0" disallow="tram rail_urban rail rail_electric rail_fast ship" speed="22.22" length="13.86" shape="1604.72,1229.85 1599.46,1242.68"/>
    </edge>
    <edge id=":1319331848_4" function="internal">
        <lane id=":1319331848_4_0" index="0" disallow="tram rail_urban rail rail_electric rail_fast ship" speed="7.22" length="2.28" shape="1604.72,1229.85 1603.37,1231.69"/>
    </edge>
    <edge id=":1319331848_5" function="internal">
        <lane id=":1319331848_5_0" index="0" disallow="tram rail_urban rail rail_electric rail_fast ship" speed="3.65" length="1.44" shape="1604.72,1229.85 1603.52,1230.66"/>
    </edge>
    <edge id=":1319331848_9" function="internal">
        <lane id=":1319331848_9_0" index="0" disallow="tram rail_urban rail rail_electric rail_fast ship" speed="7.22" length="9.07" shape="1603.37,1231.69 1601.24,1232.52 1598.33,1232.36 1594.64,1231.20"/>
    </edge>
    <edge id=":1319331848_10" function="internal">
        <lane id=":1319331848_10_0" index="0" disallow="tram rail_urban rail rail_electric rail_fast ship" speed="3.65" length="3.23" shape="1603.52,1230.66 1602.63,1230.73 1602.04,1230.05 1601.76,1228.64"/>
    </edge>
    <edge id=":1319331848_6" function="internal">
        <lane id=":1319331848_6_0" index="0" disallow="tram rail_urban rail rail_electric rail_fast ship" speed="6.50" length="9.03" shape="1596.50,1241.46 1597.11,1239.06 1596.80,1237.05 1595.57,1235.42 1593.44,1234.17"/>
    </edge>
    <edge id=":1319331848_7" function="internal">
        <lane id=":1319331848_7_0" index="0" disallow="tram rail_urban rail rail_electric rail_fast ship" speed="22.22" length="13.86" shape="1596.50,1241.46 1601.76,1228.64"/>
    </edge>
    <edge id=":1319331848_8" function="internal">
        <lane id=":1319331848_8_0" index="0" disallow="tram rail_urban rail rail_electric rail_fast ship" speed="3.65" length="1.44" shape="1596.50,1241.46 1597.70,1240.66"/>
    </edge>
    <edge id=":1319331848_11" function="internal">
        <lane id=":1319331848_11_0" index="0" disallow="tram rail_urban rail rail_electric rail_fast ship" speed="3.65" length="3.23" shape="1597.70,1240.66 1598.59,1240.59 1599.18,1241.26 1599.46,1242.68"/>
    </edge>
    <edge id=":1362859969_0" function="internal">
        <lane id=":1362859969_0_0" index="0" disallow="tram rail_urban rail rail_electric rail_fast ship" speed="16.67" length="0.30" shape="408.59,545.78 408.88,545.90"/>
        <lane id=":1362859969_0_1" index="1" disallow="tram rail_urban rail rail_electric rail_fast ship" speed="16.67" length="0.30" shape="407.38,548.74 407.66,548.85"/>
        <lane id=":1362859969_0_2" index="2" disallow="tram rail_urban rail rail_electric rail_fast ship" speed="16.67" length="0.30" shape="406.17,551.70 406.43,551.81"/>
    </edge>
    <edge id=":1362859972_0" function="internal">