<?xml version="1.0" encoding="UTF-8"?>

<!-- generated on 2022-08-20 02:03:48 by Eclipse SUMO polyconvert Version 1.11.0
<configuration xmlns:xsi="http://www.w3.org/2001/XMLSchema-instance" xsi:noNamespaceSchemaLocation="http://sumo.dlr.de/xsd/polyconvertConfiguration.xsd">

    <input>
        <net-file value="curitiba1.net.xml"/>
        <osm-files value="curitiba.osm"/>
        <type-file value="osmPolyconvert.typ.xml"/>
    </input>

    <output>
        <output-file value="curitiba1.poly.xml"/>
    </output>

    <processing>
        <poi-layer-offset value="5"/>
    </processing>

</configuration>
-->

<additional xmlns:xsi="http://www.w3.org/2001/XMLSchema-instance" xsi:noNamespaceSchemaLocation="http://sumo.dlr.de/xsd/additional_file.xsd">
    <location netOffset="-670864.82,2816281.64" convBoundary="-0.00,0.00,4848.59,2716.45" origBoundary="-49.300770,-25.453419,-49.252644,-25.428840" projParameter="+proj=utm +zone=22 +ellps=WGS84 +datum=WGS84 +units=m +no_defs"/>

    <poly id="1004721254" type="building" color="255,230,230" fill="1" layer="-1.00" shape="2409.225551,2323.907584 2424.473617,2339.264859 2434.871338,2329.591899 2420.295168,2314.070855 2409.225551,2323.907584"/>
    <poly id="1008697394" type="building" color="255,230,230" fill="1" layer="-1.00" shape="2475.742362,2287.364136 2447.646137,2259.421544 2449.026765,2258.052122 2477.122848,2285.983634 2475.742362,2287.364136"/>
    <poly id="1014985852" type="amenity" color="237,199,199" fill="1" layer="-1.00" shape="3763.940895,2178.590629 3765.932456,2179.340202 3769.599498,2169.698371 3767.607937,2168.948800 3763.940895,2178.590629"/>
    <poly id="1014985852#1" type="building" color="255,230,230" fill="1" layer="-1.00" shape="3763.940895,2178.590629 3765.932456,2179.340202 3769.599498,2169.698371 3767.607937,2168.948800 3763.940895,2178.590629"/>
    <poly id="1026832463" type="building" color="255,230,230" fill="1" layer="-1.00" shape="3246.358482,1866.234161 3224.676419,1909.356559 3242.780573,1916.854385 3263.537436,1876.081550 3264.469354,1874.252561 3246.358482,1866.234161"/>
    <poly id="1026832983" type="building" color="255,230,230" fill="1" layer="-1.00" shape="3263.537436,1876.081550 3269.138451,1878.235620 3259.485290,1904.118690 3277.137868,1912.475385 3270.859159,1927.856452 3245.373967,1918.249853 3227.425364,1949.081934 3208.167384,1941.820635 3224.676419,1909.356559 3242.780573,1916.854385 3263.537436,1876.081550"/>
    <poly id="1040668468" type="building" color="255,230,230" fill="1" layer="-1.00" shape="3925.275404,2141.824012 3966.154521,2158.474147 3930.777033,2238.224999 3890.151842,2220.230921 3925.275404,2141.824012"/>
    <poly id="1040668469" type="building" color="255,230,230" fill="1" layer="-1.00" shape="3823.799864,2145.572326 3870.616842,2160.882440 3873.433232,2152.359521 3896.477998,2159.891849 3881.892240,2203.986487 3812.030327,2181.143969 3823.799864,2145.572326"/>
    <poly id="1040668470" type="building" color="255,230,230" fill="1" layer="-1.00" shape="3876.328215,2123.617085 3905.721693,2136.628147 3900.687370,2147.872082 3879.934931,2138.692417 3876.396481,2146.615421 3867.755564,2142.795088 3876.328215,2123.617085"/>
    <poly id="1041234759" type="school" color="237,199,199" fill="1" layer="-2.00" shape="2110.445214,2098.427597 2128.407045,2108.188751 2143.961435,2091.968562 2129.264308,2080.281969 2110.445214,2098.427597"/>
    <poly id="1054587951" type="building" color="255,230,230" fill="1" layer="-1.00" shape="2886.921145,2212.791759 2866.937092,2206.181921 2862.143088,2220.513210 2882.127159,2227.123056 2886.921145,2212.791759"/>
    <poly id="1058656246" type="building" color="255,230,230" fill="1" layer="-1.00" shape="2467.940489,1946.013175 2451.489016,1962.832537 2472.545730,1983.210802 2478.671625,1976.949794 2488.997205,1966.391413 2467.940489,1946.013175"/>
    <poly id="1058656247" type="building" color="255,230,230" fill="1" layer="-1.00" shape="2364.806265,1967.608429 2364.121909,1969.921605 2364.149380,1972.048330 2365.252913,1974.150077 2378.869961,1987.877745 2391.336626,1975.630006 2374.203499,1958.380481 2364.806265,1967.608429"/>
    <poly id="1058656248" type="building" color="255,230,230" fill="1" layer="-1.00" shape="2423.806497,1959.069049 2398.382783,1984.534750 2411.068856,1997.055776 2436.482515,1971.590182 2423.806497,1959.069049"/>
    <poly id="1058656249" type="building" color="255,230,230" fill="1" layer="-1.00" shape="2384.224968,1947.637779 2376.825936,1955.023042 2395.127179,1973.143756 2402.526213,1965.758482 2397.563578,1960.837255 2384.224968,1947.637779"/>
    <poly id="1058656250" type="building" color="255,230,230" fill="1" layer="-1.00" shape="2384.224968,1947.637779 2389.249189,1942.532135 2401.210367,1954.231642 2402.677606,1955.675053 2397.563578,1960.837255 2384.224968,1947.637779"/>
    <poly id="1058656251" type="building" color="255,230,230" fill="1" layer="-1.00" shape="2389.249189,1942.532135 2402.328843,1928.681152 2414.568067,1940.100092 2401.210367,1954.231642 2389.249189,1942.532135"/>
    <poly id="1058656252" type="building" color="255,230,230" fill="1" layer="-1.00" shape="2455.696524,1933.453252 2462.878437,1940.406385 2453.436280,1950.044888 2446.254368,1943.091749 2455.696524,1933.453252"/>
    <poly id="1058656252#1" type="shop" color="237,199,255" fill="1" layer="-1.00" shape="2455.696524,1933.453252 2462.878437,1940.406385 2453.436280,1950.044888 2446.254368,1943.091749 2455.696524,1933.453252"/>
    <poly id="1058656253" type="building" color="255,230,230" fill="1" layer="-1.00" shape="2488.997205,1966.391413 2501.997333,1978.298979 2491.965691,1989.806325 2478.671625,1976.949794 2488.997205,1966.391413"/>
    <poly id="1058656254" type="building" color="255,230,230" fill="1" layer="-1.00" shape="2491.965691,1989.806325 2504.319695,2001.533907 2490.522757,2015.926032 2478.158839,2004.209645 2491.965691,1989.806325"/>
    <poly id="1060356193" type="building" color="255,230,230" fill="1" layer="-1.00" shape="2172.275048,1846.025546 2157.149534,1832.306075 2180.838408,1806.475476 2195.964064,1820.205997 2172.275048,1846.025546"/>
    <poly id="1060356194" type="building" color="255,230,230" fill="1" layer="-1.00" shape="2210.506208,1808.208602 2194.634615,1791.241714 2211.152940,1774.920341 2225.955354,1792.443859 2210.506208,1808.208602"/>
    <poly id="1060356195" type="building" color="255,230,230" fill="1" layer="-1.00" shape="2228.657108,1788.996797 2213.666068,1773.226125 2231.367309,1756.590335 2239.525665,1765.170594 2246.358354,1772.360988 2228.657108,1788.996797"/>
    <poly id="1060356196" type="building" color="255,230,230" fill="1" layer="-1.00" shape="2387.107453,1865.519624 2359.304528,1836.841934 2343.903087,1851.620231 2371.715921,1880.286745 2379.877288,1875.849604 2387.107453,1865.519624"/>
    <poly id="1060356197" type="building" color="255,230,230" fill="1" layer="-1.00" shape="2292.155730,1865.571675 2275.134696,1847.633723 2290.103095,1833.592285 2307.124277,1851.541295 2292.155730,1865.571675"/>
    <poly id="1060356198" type="building" color="255,230,230" fill="1" layer="-1.00" shape="2286.133733,2025.579168 2273.941604,2013.129203 2285.099032,2002.316526 2297.301222,2014.766351 2286.133733,2025.579168"/>
    <poly id="1060356199" type="building" color="255,230,230" fill="1" layer="-1.00" shape="2317.814223,1995.390999 2312.411108,1989.855032 2304.810424,1997.209619 2310.223597,2002.745460 2317.814223,1995.390999"/>
    <poly id="1060356947" type="building" color="255,230,230" fill="1" layer="-1.00" shape="2104.507892,1774.590257 2093.044714,1764.811753 2103.423317,1753.676909 2115.440047,1764.256996 2104.507892,1774.590257"/>
    <poly id="1060357291" type="building" color="255,230,230" fill="1" layer="-1.00" shape="2391.311097,1887.223573 2381.336605,1877.459297 2389.978290,1865.039393 2402.489609,1878.836711 2391.311097,1887.223573"/>
    <poly id="1060357292" type="building" color="255,230,230" fill="1" layer="-1.00" shape="2311.195392,1787.432612 2317.645451,1793.032605 2301.436163,1811.466126 2294.985960,1805.855048 2311.195392,1787.432612"/>
    <poly id="1060357293" type="building" color="255,230,230" fill="1" layer="-1.00" shape="2324.314982,1800.047813 2318.766504,1794.934714 2306.334379,1808.289804 2311.882857,1813.402908 2324.314982,1800.047813"/>
    <poly id="1060357294" type="building" color="255,230,230" fill="1" layer="-1.00" shape="2263.466907,1755.012700 2255.476996,1747.792940 2240.737134,1763.947395 2248.726903,1771.156087 2263.466907,1755.012700"/>
    <poly id="1060357295" type="building" color="255,230,230" fill="1" layer="-1.00" shape="2258.548154,1737.117896 2252.752763,1731.575897 2237.028252,1747.820611 2242.823643,1753.362616 2258.548154,1737.117896"/>
    <poly id="1063077702" type="building" color="255,230,230" fill="1" layer="-1.00" shape="2311.543007,865.006246 2320.109355,868.606891 2325.586062,854.178328 2317.527300,850.936722 2311.543007,865.006246"/>
    <poly id="1063077703" type="building" color="255,230,230" fill="1" layer="-1.00" shape="2462.275954,794.315615 2469.981263,798.226418 2476.055443,784.122410 2466.681666,780.310736 2462.275954,794.315615"/>
    <poly id="1063077704" type="building" color="255,230,230" fill="1" layer="-1.00" shape="1973.244868,624.747306 1975.601176,619.487852 1985.366332,623.250491 1982.740203,628.646369 1973.244868,624.747306"/>
    <poly id="1063077705" type="building" color="255,230,230" fill="1" layer="-1.00" shape="1982.947078,634.548561 1991.087932,637.933317 1994.361878,630.512789 1986.086858,626.863881 1982.947078,634.548561"/>
    <poly id="1063077706" type="building" color="255,230,230" fill="1" layer="-1.00" shape="1970.554047,657.109171 1977.336991,659.713790 1981.332371,649.735900 1975.022479,647.933917 1970.554047,657.109171"/>
    <poly id="1063077707" type="building" color="255,230,230" fill="1" layer="-1.00" shape="2188.345679,745.265021 2192.543669,747.094176 2195.301819,741.020757 2199.760766,742.026728 2202.245655,735.823894 2196.820467,733.212931 2197.906098,730.041528 2191.394323,727.411357 2187.968458,737.082845 2191.354874,738.379628 2188.345679,745.265021"/>
    <poly id="1063077708" type="building" color="255,230,230" fill="1" layer="-1.00" shape="2222.341986,724.840370 2226.943589,725.988511 2228.089401,720.467675 2223.219692,719.588882 2222.341986,724.840370"/>
    <poly id="1063077709" type="building" color="255,230,230" fill="1" layer="-1.00" shape="2232.124605,729.943119 2240.525356,733.191432 2242.888451,728.463609 2234.613295,724.814847 2232.124605,729.943119"/>
    <poly id="1063077710" type="building" color="255,230,230" fill="1" layer="-1.00" shape="2169.702327,743.356463 2181.766173,748.296856 2186.234501,739.121526 2173.622289,733.778309 2169.702327,743.356463"/>
    <poly id="1063077711" type="man_made" color="255,230,230" fill="1" layer="-1.00" shape="2203.432760,712.466065 2207.350971,702.754980 2210.335100,704.056953 2210.983033,702.043369 2220.889508,706.612755 2215.907216,717.268184 2203.432760,712.466065"/>
    <poly id="1065554619" type="building" color="255,230,230" fill="1" layer="-1.00" shape="3646.124488,752.233853 3655.986963,726.336551 3633.627303,717.919849 3626.410642,736.891782 3621.174527,734.921475 3618.538878,741.857771 3646.124488,752.233853"/>
    <poly id="1065554620" type="building" color="255,230,230" fill="1" layer="-1.00" shape="4023.362677,859.510782 4026.817291,851.367215 3990.901690,836.314565 3987.457117,844.457990 4023.362677,859.510782"/>
    <poly id="1065554621" type="building" color="255,230,230" fill="1" layer="-1.00" shape="3972.911466,681.702925 3984.796021,686.721631 3991.700098,671.586757 3978.637921,667.281375 3972.911466,681.702925"/>
    <poly id="1067568773" type="building" color="255,230,230" fill="1" layer="-1.00" shape="1658.435977,1388.046760 1646.691918,1406.422014 1648.818964,1407.557889 1644.675893,1413.914866 1645.404006,1415.777766 1650.618617,1419.211479 1651.566610,1417.836626 1653.127158,1418.724984 1656.763992,1412.895208 1658.100993,1413.609186 1663.780188,1403.897807 1659.419818,1401.184288 1661.544781,1397.467802 1665.938316,1400.413542 1669.326694,1394.819608 1658.435977,1388.046760"/>
    <poly id="1078732788" type="college" color="237,199,199" fill="1" layer="-2.00" shape="3631.271925,1836.160259 3633.617907,1837.093572 3642.081662,1840.462121 3651.961174,1844.399408 3644.506700,1862.931233 3634.627177,1858.993940 3623.817429,1854.692071 3631.271925,1836.160259"/>
    <poly id="1078772089" type="amenity" color="237,199,199" fill="1" layer="-1.00" shape="2958.268168,1706.939111 2961.795798,1698.927886 2964.153828,1693.036750 2966.179649,1688.678765 2975.251807,1666.060561 2978.126229,1658.877612 2979.926134,1659.596542 2981.280366,1656.200018 2987.721348,1658.753214 3004.273828,1665.318689 3009.410471,1667.357015 3016.745886,1670.618707 2996.029701,1721.538592 2977.852681,1714.595334 2958.268168,1706.939111"/>
    <poly id="126443817" type="amenity" color="237,199,199" fill="1" layer="-1.00" shape="2439.480228,1083.561325 2426.166438,1078.448959 2417.210218,1101.508415 2474.721717,1123.608910 2487.961431,1089.537326 2495.681498,1069.684424 2472.551634,1060.799385 2475.209340,1053.962785 2497.005692,997.844991 2477.747784,990.449815 2458.904251,983.204356 2437.098002,1039.344365 2452.120178,1045.110423 2449.715647,1051.301188 2431.852762,1044.441836 2421.523599,1071.008791 2441.388172,1078.639938 2439.480228,1083.561325"/>
    <poly id="126443817#1" type="building" color="255,230,230" fill="1" layer="-1.00" shape="2439.480228,1083.561325 2426.166438,1078.448959 2417.210218,1101.508415 2474.721717,1123.608910 2487.961431,1089.537326 2495.681498,1069.684424 2472.551634,1060.799385 2475.209340,1053.962785 2497.005692,997.844991 2477.747784,990.449815 2458.904251,983.204356 2437.098002,1039.344365 2452.120178,1045.110423 2449.715647,1051.301188 2431.852762,1044.441836 2421.523599,1071.008791 2441.388172,1078.639938 2439.480228,1083.561325"/>
    <poly id="126444311" type="amenity" color="237,199,199" fill="1" layer="-1.00" shape="2740.647622,1092.150205 2778.060359,1107.153517 2769.552997,1129.099577 2758.822737,1124.652018 2746.064541,1158.573656 2730.770974,1152.844660 2743.830205,1118.863747 2731.883040,1113.656426 2740.647622,1092.150205"/>
    <poly id="126444311#1" type="building" color="255,230,230" fill="1" layer="-1.00" shape="2740.647622,1092.150205 2778.060359,1107.153517 2769.552997,1129.099577 2758.822737,1124.652018 2746.064541,1158.573656 2730.770974,1152.844660 2743.830205,1118.863747 2731.883040,1113.656426 2740.647622,1092.150205"/>
    <poly id="126500711" type="building" color="255,230,230" fill="1" layer="-1.00" shape="2735.522458,1827.512237 2750.257545,1833.558707 2762.012319,1805.211571 2772.732891,1779.348332 2756.369643,1772.636098 2740.859337,1810.049803 2742.487547,1810.715595 2735.522458,1827.512237"/>
    <poly id="127724380" type="building" color="255,230,230" fill="1" layer="-1.00" shape="3357.989167,1587.409427 3364.720456,1571.269069 3347.581654,1564.490078 3340.987992,1580.384910 3357.989167,1587.409427"/>
    <poly id="127742936" type="building" color="255,230,230" fill="1" layer="-1.00" shape="3141.180115,1531.740827 3147.979866,1514.658024 3170.698794,1523.558393 3163.869324,1540.674831 3141.180115,1531.740827"/>
    <poly id="127742937" type="building" color="255,230,230" fill="1" layer="-1.00" shape="3173.406841,1516.743145 3177.907699,1505.451030 3185.040563,1486.137082 3189.255137,1484.564605 3225.881994,1498.568823 3233.824567,1478.867659 3217.572036,1472.154556 3215.515594,1477.244174 3201.470455,1471.643490 3202.347458,1469.460700 3196.259971,1467.013807 3195.373053,1469.207804 3189.852103,1467.008362 3184.193245,1467.358785 3177.750918,1470.123430 3174.868140,1473.550899 3172.467852,1478.500950 3170.050416,1477.479861 3167.024126,1484.576205 3169.674184,1485.693982 3163.662695,1500.728108 3154.977157,1497.295687 3150.687922,1507.842780 3173.406841,1516.743145"/>
    <poly id="127742939" type="building" color="255,230,230" fill="1" layer="-1.00" shape="3173.406841,1516.743145 3150.687922,1507.842780 3149.519096,1510.793776 3147.979866,1514.658024 3170.698794,1523.558393 3173.406841,1516.743145"/>
    <poly id="127742941" type="amenity" color="237,199,199" fill="1" layer="-1.00" shape="3183.889655,1498.992112 3188.428283,1487.511166 3218.022795,1499.125086 3213.443956,1510.606565 3202.493831,1506.306207 3183.889655,1498.992112"/>
    <poly id="127742941#1" type="building" color="255,230,230" fill="1" layer="-1.00" shape="3183.889655,1498.992112 3188.428283,1487.511166 3218.022795,1499.125086 3213.443956,1510.606565 3202.493831,1506.306207 3183.889655,1498.992112"/>
    <poly id="127742943" type="building" color="255,230,230" fill="1" layer="-1.00" shape="3141.180115,1531.740827 3137.517012,1540.928201 3145.818079,1544.188367 3146.811764,1541.693867 3161.209830,1547.356503 3163.869324,1540.674831 3141.180115,1531.740827"/>
    <poly id="127742944" type="building" color="255,230,230" fill="1" layer="-1.00" shape="3168.286726,1548.527612 3178.236127,1552.453238 3194.211706,1558.749001 3199.706383,1544.973452 3210.880612,1516.943564 3184.955696,1506.722211 3174.833580,1532.112791 3173.440475,1535.609552 3168.286726,1548.527612"/>
    <poly id="127742947" type="building" color="255,230,230" fill="1" layer="-1.00" shape="3175.535004,1617.154040 3183.157042,1598.321209 3148.488074,1584.823224 3147.648377,1581.355444 3154.974303,1562.958537 3161.209830,1547.356503 3146.811764,1541.693867 3145.818079,1544.188367 3137.517012,1540.928201 3133.364386,1551.152235 3140.656813,1554.203921 3133.892368,1570.134087 3131.363709,1569.070119 3128.562091,1575.653920 3131.384006,1576.835947 3129.289725,1582.114374 3130.638927,1588.411663 3135.442692,1598.131722 3141.742154,1600.631287 3141.196314,1601.978880 3146.434685,1604.104462 3147.467744,1601.542980 3164.606760,1608.344376 3163.086630,1612.130826 3175.535004,1617.154040"/>
    <poly id="127743419" type="building" color="255,230,230" fill="1" layer="-1.00" shape="3271.251604,1622.647142 3284.793564,1589.490286 3259.566876,1578.827930 3248.497987,1605.671082 3245.794260,1612.043146 3271.251604,1622.647142"/>
    <poly id="127743419#1" type="leisure" color="207,245,201" fill="1" layer="-2.00" shape="3271.251604,1622.647142 3284.793564,1589.490286 3259.566876,1578.827930 3248.497987,1605.671082 3245.794260,1612.043146 3271.251604,1622.647142"/>
    <poly id="127743419#2" type="sport" color="79,230,125" fill="1" layer="-2.00" shape="3271.251604,1622.647142 3284.793564,1589.490286 3259.566876,1578.827930 3248.497987,1605.671082 3245.794260,1612.043146 3271.251604,1622.647142"/>
    <poly id="127743421" type="building" color="255,230,230" fill="1" layer="-1.00" shape="3191.560374,1561.409044 3179.477858,1556.669143 3175.971383,1565.522137 3171.782714,1576.067931 3183.865243,1580.807840 3191.560374,1561.409044"/>
    <poly id="127743423" type="building" color="255,230,230" fill="1" layer="-1.00" shape="3245.794260,1612.043146 3271.251604,1622.647142 3267.023762,1633.271028 3264.475108,1632.218422 3241.455623,1622.657382 3245.794260,1612.043146"/>
    <poly id="127743424" type="building" color="255,230,230" fill="1" layer="-1.00" shape="3246.196161,1517.493184 3222.110625,1507.934889 3225.881994,1498.568823 3233.824567,1478.867659 3257.941098,1488.491999 3246.196161,1517.493184"/>
    <poly id="127743425" type="building" color="255,230,230" fill="1" layer="-1.00" shape="3270.572311,1493.656768 3257.941098,1488.491999 3246.196161,1517.493184 3258.876533,1522.568698 3270.572311,1493.656768"/>
    <poly id="127743426" type="building" color="255,230,230" fill="1" layer="-1.00" shape="3238.197811,1637.489607 3239.787610,1633.646850 3236.025554,1632.111457 3234.425697,1635.954344 3231.573873,1634.794883 3209.021815,1625.593314 3214.825568,1611.603255 3222.178395,1614.654117 3241.455623,1622.657382 3264.475108,1632.218422 3262.369227,1637.375159 3260.619739,1636.666690 3259.556956,1639.261804 3261.306444,1639.970273 3258.868953,1645.928974 3251.456041,1642.901068 3253.045693,1639.047233 3249.273576,1637.511974 3247.683923,1641.365809 3238.197811,1637.489607"/>
    <poly id="127743427" type="building" color="255,230,230" fill="1" layer="-1.00" shape="3258.195695,1577.039925 3264.942607,1560.544906 3276.341092,1565.282538 3289.317223,1570.664387 3292.007540,1571.781619 3284.793564,1589.490286 3259.566876,1578.827930 3258.840264,1577.873528 3258.195695,1577.039925"/>
    <poly id="127750251" type="building" color="255,230,230" fill="1" layer="-1.00" shape="3671.674522,2336.531840 3660.848709,2331.798119 3656.187380,2342.350214 3640.464810,2335.486625 3644.383622,2326.628146 3630.644032,2320.625036 3637.738552,2304.557383 3651.467928,2310.549540 3654.516902,2303.652209 3670.411445,2310.591092 3665.769528,2321.087546 3676.443451,2325.745688 3671.674522,2336.531840"/>
    <poly id="129306792" type="building" color="255,230,230" fill="1" layer="-1.00" shape="3997.794738,1877.772228 3985.276073,1859.688944 3983.492047,1857.108726 3968.228940,1866.170630 3953.217786,1872.182607 3940.312057,1876.106497 3928.187570,1878.225452 3928.940283,1881.949140 3932.529790,1899.561693 3929.289478,1901.021993 3930.976865,1904.678105 3944.159632,1902.711533 3959.219770,1898.139153 3971.026741,1894.041235 3983.363788,1888.163812 3997.794738,1877.772228"/>
    <poly id="129306793" type="building" color="255,230,230" fill="1" layer="-1.00" shape="4010.500173,1838.432492 3985.276073,1859.688944 3997.794738,1877.772228 3983.363788,1888.163812 3971.026741,1894.041235 3959.219770,1898.139153 3944.159632,1902.711533 3930.976865,1904.678105 3929.289478,1901.021993 3932.529790,1899.561693 3928.940283,1881.949140 3921.398332,1890.655538 3904.272909,1910.432514 3903.529529,1911.284177 3926.069713,1918.723297 3925.492219,1920.724977 3962.645194,1926.311777 3979.356620,1926.481661 4003.479167,1874.740110 4015.404679,1841.935855 4010.500173,1838.432492"/>
    <poly id="129306793#1" type="shop" color="237,199,255" fill="1" layer="-1.00" shape="4010.500173,1838.432492 3985.276073,1859.688944 3997.794738,1877.772228 3983.363788,1888.163812 3971.026741,1894.041235 3959.219770,1898.139153 3944.159632,1902.711533 3930.976865,1904.678105 3929.289478,1901.021993 3932.529790,1899.561693 3928.940283,1881.949140 3921.398332,1890.655538 3904.272909,1910.432514 3903.529529,1911.284177 3926.069713,1918.723297 3925.492219,1920.724977 3962.645194,1926.311777 3979.356620,1926.481661 4003.479167,1874.740110 4015.404679,1841.935855 4010.500173,1838.432492"/>
    <poly id="129306802" type="parking" color="184,184,179" fill="1" layer="-1.00" shape="4017.461307,1840.734699 4010.604022,1837.910441 3985.257350,1859.024470 3983.484104,1856.499504 3967.892839,1865.853732 3952.701508,1871.934529 3940.426833,1875.650777 3927.970144,1877.751905 3928.333339,1881.691164 3921.210502,1890.137290 3914.953042,1883.937262 3963.544850,1831.732830 3974.575793,1824.443295 3985.256096,1808.007369 3992.053725,1791.599903 3995.572250,1789.105644 4034.159550,1802.107287 4017.461307,1840.734699"/>
    <poly id="129306803" type="amenity" color="237,199,199" fill="1" layer="-1.00" shape="3953.019646,1524.415732 3960.875117,1506.598568 4020.538446,1532.121211 3973.108087,1639.349492 3916.946967,1613.969302 3919.411936,1608.597270 3914.392524,1606.302947 3918.196183,1598.675581 3926.392216,1602.346559 3933.852447,1585.841849 3928.416485,1583.231682 3931.571190,1576.753870 3933.946780,1571.471628 3944.694396,1576.416611 3950.106436,1564.846427 3937.274368,1558.964782 3944.742254,1541.507200 3954.918675,1545.850295 3962.447598,1528.447298 3953.019646,1524.415732"/>
    <poly id="129306803#1" type="building" color="255,230,230" fill="1" layer="-1.00" shape="3953.019646,1524.415732 3960.875117,1506.598568 4020.538446,1532.121211 3973.108087,1639.349492 3916.946967,1613.969302 3919.411936,1608.597270 3914.392524,1606.302947 3918.196183,1598.675581 3926.392216,1602.346559 3933.852447,1585.841849 3928.416485,1583.231682 3931.571190,1576.753870 3933.946780,1571.471628 3944.694396,1576.416611 3950.106436,1564.846427 3937.274368,1558.964782 3944.742254,1541.507200 3954.918675,1545.850295 3962.447598,1528.447298 3953.019646,1524.415732"/>
    <poly id="129306804" type="building" color="255,230,230" fill="1" layer="-1.00" shape="3916.946967,1613.969302 3919.411936,1608.597270 3914.392524,1606.302947 3918.196183,1598.675581 3926.392216,1602.346559 3933.852447,1585.841849 3928.416485,1583.231682 3931.571190,1576.753870 3933.946780,1571.471628 3944.694396,1576.416611 3950.106436,1564.846427 3937.274368,1558.964782 3944.742254,1541.507200 3954.918675,1545.850295 3962.447598,1528.447298 3953.019646,1524.415732 3960.875117,1506.598568 3933.450798,1494.071656 3909.050793,1548.409154 3930.927882,1558.272012 3927.381463,1566.339175 3907.576500,1558.011390 3886.574880,1604.516253 3915.605146,1616.756451 3916.946967,1613.969302"/>
    <poly id="129306805" type="building" color="255,230,230" fill="1" layer="-1.00" shape="3921.398332,1890.655538 3914.510779,1883.965183 3894.285274,1905.156299 3895.392948,1907.557006 3899.187120,1910.000253 3904.272909,1910.432514 3921.398332,1890.655538"/>
    <poly id="129320875" type="building" color="255,230,230" fill="1" layer="-1.00" shape="3979.176439,1708.201651 3994.466602,1671.143647 3967.939339,1660.322274 3952.649120,1697.380245 3979.176439,1708.201651"/>
    <poly id="129320877" type="building" color="255,230,230" fill="1" layer="-1.00" shape="3956.994821,1736.730298 3965.684684,1712.687151 3992.942461,1722.435460 3984.262552,1746.467419 3956.994821,1736.730298"/>
    <poly id="129320877#1" type="shop" color="237,199,255" fill="1" layer="-1.00" shape="3956.994821,1736.730298 3965.684684,1712.687151 3992.942461,1722.435460 3984.262552,1746.467419 3956.994821,1736.730298"/>
    <poly id="129320878" type="building" color="255,230,230" fill="1" layer="-1.00" shape="3968.871881,1704.070732 3965.426450,1712.169822 3992.942461,1722.435460 3983.437165,1698.596310 3979.169125,1708.412241 3968.871881,1704.070732"/>
    <poly id="129322189" type="building" color="255,230,230" fill="0" layer="-1.00" shape="3663.606907,1284.600236 3633.859338,1272.047611 3639.048751,1259.594166"/>
    <poly id="129322190" type="building" color="255,230,230" fill="1" layer="-1.00" shape="3618.151649,1315.702399 3632.415248,1282.435997 3677.032780,1301.353597 3662.759207,1334.620182 3618.151649,1315.702399"/>
    <poly id="129322190#1" type="leisure" color="207,245,201" fill="1" layer="-2.00" shape="3618.151649,1315.702399 3632.415248,1282.435997 3677.032780,1301.353597 3662.759207,1334.620182 3618.151649,1315.702399"/>
    <poly id="129322191" type="building" color="255,230,230" fill="1" layer="-1.00" shape="3584.881471,1249.663613 3561.724430,1240.326510 3546.468338,1277.726986 3569.635486,1287.063987 3584.881471,1249.663613"/>
    <poly id="129322195" type="building" color="255,230,230" fill="1" layer="-1.00" shape="3540.699589,1272.716944 3530.890348,1268.734376 3522.203428,1289.941057 3532.012537,1293.912555 3540.699589,1272.716944"/>
    <poly id="129322198" type="building" color="255,230,230" fill="1" layer="-1.00" shape="3563.014429,1234.327272 3567.400360,1223.512869 3607.777095,1239.682963 3603.401246,1250.497250 3563.014429,1234.327272"/>
    <poly id="129322199" type="building" color="255,230,230" fill="1" layer="-1.00" shape="3587.412730,1315.094245 3599.439885,1288.526313 3610.286564,1293.381623 3598.249366,1319.949695 3587.412730,1315.094245"/>
    <poly id="129345844" type="building" color="255,230,230" fill="1" layer="-1.00" shape="2835.625327,1813.531021 2823.448203,1808.481819 2819.574298,1817.727205 2820.503067,1817.981062 2818.652179,1822.646954 2829.848676,1827.321113 2835.625327,1813.531021"/>
    <poly id="129345846" type="building" color="255,230,230" fill="1" layer="-1.00" shape="2816.605935,1795.918714 2798.097608,1788.248319 2802.986548,1776.596823 2806.900601,1778.218996 2810.960004,1768.539146 2806.631287,1766.745087 2825.639901,1721.398034 2838.069688,1726.543664 2835.132390,1733.539054 2838.712661,1735.021520 2841.181387,1729.128977 2872.119480,1741.944910 2864.215587,1760.803333 2868.048750,1762.393301 2883.720145,1725.021645 2902.309339,1732.724109 2898.835397,1741.000505 2894.092007,1739.034591 2874.185817,1786.520469 2886.180898,1791.494434 2874.705730,1818.885319 2856.551225,1811.354437 2855.526428,1813.782841 2850.449245,1811.677213 2847.385339,1818.995523 2855.709045,1822.443917 2858.490165,1815.816140 2868.978172,1820.156009 2860.156758,1841.186633 2849.779949,1836.889629 2853.585300,1827.789143 2845.150381,1824.297873 2833.079786,1853.103405 2818.495503,1847.055068 2817.412358,1849.639324 2811.971075,1847.383297 2813.093305,1844.709906 2798.468667,1838.650993 2800.254610,1834.406931 2796.219130,1832.730935 2798.492763,1827.306229 2802.447204,1828.938960 2812.234445,1805.580450 2809.028308,1804.248231 2810.950463,1799.647889 2814.439797,1801.098304 2816.605935,1795.918714"/>
    <poly id="129345847" type="tourism" color="207,245,201" fill="1" layer="-2.00" shape="3345.283808,1803.418877 3372.889868,1736.256252 3506.735531,1790.662854 3479.129987,1857.825781 3345.283808,1803.418877"/>
    <poly id="129346075" type="building" color="255,230,230" fill="1" layer="-1.00" shape="2852.930947,1728.356369 2862.050431,1707.044917 2880.266155,1714.652540 2871.228879,1736.095884 2852.930947,1728.356369"/>
    <poly id="129346763" type="leisure" color="207,245,201" fill="1" layer="-2.00" shape="2426.278050,1467.648167 2416.913169,1463.780921 2426.709654,1440.333962 2436.074522,1444.201201 2426.278050,1467.648167"/>
    <poly id="129346763#1" type="sport" color="79,230,125" fill="1" layer="-2.00" shape="2426.278050,1467.648167 2416.913169,1463.780921 2426.709654,1440.333962 2436.074522,1444.201201 2426.278050,1467.648167"/>