<?xml version="1.0" encoding="UTF-8"?>

<!-- generated on 2022-10-16 15:43:45 by Eclipse SUMO polyconvert Version 1.14.1
<configuration xmlns:xsi="http://www.w3.org/2001/XMLSchema-instance" xsi:noNamespaceSchemaLocation="http://sumo.dlr.de/xsd/polyconvertConfiguration.xsd">

    <input>
        <net-file value="curitibanew.net.xml"/>
        <osm-files value="curitibanew.osm"/>
        <type-file value="osmPolyconvert.typ.xml"/>
    </input>

    <output>
        <output-file value="curitibanew.poly.xml"/>
    </output>

</configuration>
-->

<additional xmlns:xsi="http://www.w3.org/2001/XMLSchema-instance" xsi:noNamespaceSchemaLocation="http://sumo.dlr.de/xsd/additional_file.xsd">
    <location netOffset="-672917.30,2816073.80" convBoundary="0.00,-0.00,2796.11,1797.51" origBoundary="-49.280288,-25.451486,-49.252644,-25.435279" projParameter="+proj=utm +zone=22 +ellps=WGS84 +datum=WGS84 +units=m +no_defs"/>

    <poly id="1078772089" type="amenity" color="237,199,199" fill="1" layer="-1.00" shape="905.788168,1499.099111 909.315798,1491.087886 911.673828,1485.196750 913.699649,1480.838765 922.771807,1458.220561 925.646229,1451.037612 927.446134,1451.756542 928.800366,1448.360018 935.241348,1450.913214 951.793828,1457.478689 956.930471,1459.517015 964.265886,1462.778707 943.549701,1513.698592 925.372681,1506.755334 905.788168,1499.099111"/>
    <poly id="126444311" type="amenity" color="237,199,199" fill="1" layer="-1.00" shape="688.167622,884.310205 725.580359,899.313517 717.072997,921.259577 706.342737,916.812018 693.584541,950.733656 678.290974,945.004660 691.350205,911.023747 679.403040,905.816426 688.167622,884.310205"/>
    <poly id="126444311#1" type="building" color="255,230,230" fill="1" layer="-1.00" shape="688.167622,884.310205 725.580359,899.313517 717.072997,921.259577 706.342737,916.812018 693.584541,950.733656 678.290974,945.004660 691.350205,911.023747 679.403040,905.816426 688.167622,884.310205"/>
    <poly id="126500711" type="building" color="255,230,230" fill="1" layer="-1.00" shape="683.042458,1619.672237 697.777545,1625.718707 709.532319,1597.371571 720.252891,1571.508332 703.889643,1564.796098 688.379337,1602.209803 690.007547,1602.875595 683.042458,1619.672237"/>
    <poly id="127724380" type="building" color="255,230,230" fill="1" layer="-1.00" shape="1305.509167,1379.569427 1312.240456,1363.429069 1295.101654,1356.650078 1288.507992,1372.544910 1305.509167,1379.569427"/>
    <poly id="127742936" type="building" color="255,230,230" fill="1" layer="-1.00" shape="1088.700115,1323.900827 1095.499866,1306.818024 1118.218794,1315.718393 1111.389324,1332.834831 1088.700115,1323.900827"/>
    <poly id="127742937" type="building" color="255,230,230" fill="1" layer="-1.00" shape="1120.926841,1308.903145 1125.427699,1297.611030 1132.560563,1278.297082 1136.775137,1276.724605 1173.401994,1290.728823 1181.344567,1271.027659 1165.092036,1264.314556 1163.035594,1269.404174 1148.990455,1263.803490 1149.867458,1261.620700 1143.779971,1259.173807 1142.893053,1261.367804 1137.372103,1259.168362 1131.713245,1259.518785 1125.270918,1262.283430 1122.388140,1265.710899 1119.987852,1270.660950 1117.570416,1269.639861 1114.544126,1276.736205 1117.194184,1277.853982 1111.182695,1292.888108 1102.497157,1289.455687 1098.207922,1300.002780 1120.926841,1308.903145"/>
    <poly id="127742939" type="building" color="255,230,230" fill="1" layer="-1.00" shape="1120.926841,1308.903145 1098.207922,1300.002780 1097.039096,1302.953776 1095.499866,1306.818024 1118.218794,1315.718393 1120.926841,1308.903145"/>
    <poly id="127742941" type="amenity" color="237,199,199" fill="1" layer="-1.00" shape="1131.409655,1291.152112 1135.948283,1279.671166 1165.542795,1291.285086 1160.963956,1302.766565 1150.013831,1298.466207 1131.409655,1291.152112"/>
    <poly id="127742941#1" type="building" color="255,230,230" fill="1" layer="-1.00" shape="1131.409655,1291.152112 1135.948283,1279.671166 1165.542795,1291.285086 1160.963956,1302.766565 1150.013831,1298.466207 1131.409655,1291.152112"/>
    <poly id="127742943" type="building" color="255,230,230" fill="1" layer="-1.00" shape="1088.700115,1323.900827 1085.037012,1333.088201 1093.338079,1336.348367 1094.331764,1333.853867 1108.729830,1339.516503 1111.389324,1332.834831 1088.700115,1323.900827"/>
    <poly id="127742944" type="building" color="255,230,230" fill="1" layer="-1.00" shape="1115.806726,1340.687612 1125.756127,1344.613238 1141.731706,1350.909001 1147.226383,1337.133452 1158.400612,1309.103564 1132.475696,1298.882211 1122.353580,1324.272791 1120.960475,1327.769552 1115.806726,1340.687612"/>
    <poly id="127742947" type="building" color="255,230,230" fill="1" layer="-1.00" shape="1123.055004,1409.314040 1130.677042,1390.481209 1096.008074,1376.983224 1095.168377,1373.515444 1102.494303,1355.118537 1108.729830,1339.516503 1094.331764,1333.853867 1093.338079,1336.348367 1085.037012,1333.088201 1080.884386,1343.312235 1088.176813,1346.363921 1081.412368,1362.294087 1078.883709,1361.230119 1076.082091,1367.813920 1078.904006,1368.995947 1076.809725,1374.274374 1078.158927,1380.571663 1082.962692,1390.291722 1089.262154,1392.791287 1088.716314,1394.138880 1093.954685,1396.264462 1094.987744,1393.702980 1112.126760,1400.504376 1110.606630,1404.290826 1123.055004,1409.314040"/>
    <poly id="127743419" type="building" color="255,230,230" fill="1" layer="-1.00" shape="1218.771604,1414.807142 1232.313564,1381.650286 1207.086876,1370.987930 1196.017987,1397.831082 1193.314260,1404.203146 1218.771604,1414.807142"/>
    <poly id="127743419#1" type="leisure" color="207,245,201" fill="1" layer="-2.00" shape="1218.771604,1414.807142 1232.313564,1381.650286 1207.086876,1370.987930 1196.017987,1397.831082 1193.314260,1404.203146 1218.771604,1414.807142"/>
    <poly id="127743419#2" type="sport" color="79,230,125" fill="1" layer="-2.00" shape="1218.771604,1414.807142 1232.313564,1381.650286 1207.086876,1370.987930 1196.017987,1397.831082 1193.314260,1404.203146 1218.771604,1414.807142"/>
    <poly id="127743421" type="building" color="255,230,230" fill="1" layer="-1.00" shape="1139.080374,1353.569044 1126.997858,1348.829143 1123.491383,1357.682137 1119.302714,1368.227931 1131.385243,1372.967840 1139.080374,1353.569044"/>
    <poly id="127743423" type="building" color="255,230,230" fill="1" layer="-1.00" shape="1193.314260,1404.203146 1218.771604,1414.807142 1214.543762,1425.431028 1211.995108,1424.378422 1188.975623,1414.817382 1193.314260,1404.203146"/>
    <poly id="127743424" type="building" color="255,230,230" fill="1" layer="-1.00" shape="1193.716161,1309.653184 1169.630625,1300.094889 1173.401994,1290.728823 1181.344567,1271.027659 1205.461098,1280.651999 1193.716161,1309.653184"/>
    <poly id="127743425" type="building" color="255,230,230" fill="1" layer="-1.00" shape="1218.092311,1285.816768 1205.461098,1280.651999 1193.716161,1309.653184 1206.396533,1314.728698 1218.092311,1285.816768"/>
    <poly id="127743426" type="building" color="255,230,230" fill="1" layer="-1.00" shape="1185.717811,1429.649607 1187.307610,1425.806850 1183.545554,1424.271457 1181.945697,1428.114344 1179.093873,1426.954883 1156.541815,1417.753314 1162.345568,1403.763255 1169.698395,1406.814117 1188.975623,1414.817382 1211.995108,1424.378422 1209.889227,1429.535159 1208.139739,1428.826690 1207.076956,1431.421804 1208.826444,1432.130273 1206.388953,1438.088974 1198.976041,1435.061068 1200.565693,1431.207233 1196.793576,1429.671974 1195.203923,1433.525809 1185.717811,1429.649607"/>
    <poly id="127743427" type="building" color="255,230,230" fill="1" layer="-1.00" shape="1205.715695,1369.199925 1212.462607,1352.704906 1223.861092,1357.442538 1236.837223,1362.824387 1239.527540,1363.941619 1232.313564,1381.650286 1207.086876,1370.987930 1206.360264,1370.033528 1205.715695,1369.199925"/>
    <poly id="129322189" type="building" color="255,230,230" fill="0" layer="-1.00" shape="1611.126907,1076.760236 1581.379338,1064.207611 1586.568751,1051.754166"/>
    <poly id="129322190" type="building" color="255,230,230" fill="1" layer="-1.00" shape="1565.671649,1107.862399 1579.935248,1074.595997 1624.552780,1093.513597 1610.279207,1126.780182 1565.671649,1107.862399"/>
    <poly id="129322190#1" type="leisure" color="207,245,201" fill="1" layer="-2.00" shape="1565.671649,1107.862399 1579.935248,1074.595997 1624.552780,1093.513597 1610.279207,1126.780182 1565.671649,1107.862399"/>
    <poly id="129322191" type="building" color="255,230,230" fill="1" layer="-1.00" shape="1532.401471,1041.823613 1509.244430,1032.486510 1493.988338,1069.886986 1517.155486,1079.223987 1532.401471,1041.823613"/>
    <poly id="129322195" type="building" color="255,230,230" fill="1" layer="-1.00" shape="1488.219589,1064.876944 1478.410348,1060.894376 1469.723428,1082.101057 1479.532537,1086.072555 1488.219589,1064.876944"/>
    <poly id="129322198" type="building" color="255,230,230" fill="1" layer="-1.00" shape="1510.534429,1026.487272 1514.920360,1015.672869 1555.297095,1031.842963 1550.921246,1042.657250 1510.534429,1026.487272"/>
    <poly id="129322199" type="building" color="255,230,230" fill="1" layer="-1.00" shape="1534.932730,1107.254245 1546.959885,1080.686313 1557.806564,1085.541623 1545.769366,1112.109695 1534.932730,1107.254245"/>
    <poly id="129345844" type="building" color="255,230,230" fill="1" layer="-1.00" shape="783.145327,1605.691021 770.968203,1600.641819 767.094298,1609.887205 768.023067,1610.141062 766.172179,1614.806954 777.368676,1619.481113 783.145327,1605.691021"/>
    <poly id="129345846" type="building" color="255,230,230" fill="1" layer="-1.00" shape="764.125935,1588.078714 745.617608,1580.408319 750.506548,1568.756823 754.420601,1570.378996 758.480004,1560.699146 754.151287,1558.905087 773.159901,1513.558034 785.589688,1518.703664 782.652390,1525.699054 786.232661,1527.181520 788.701387,1521.288977 819.639480,1534.104910 811.735587,1552.963333 815.568750,1554.553301 831.240145,1517.181645 849.829339,1524.884109 846.355397,1533.160505 841.612007,1531.194591 821.705817,1578.680469 833.700898,1583.654434 822.225730,1611.045319 804.071225,1603.514437 803.046428,1605.942841 797.969245,1603.837213 794.905339,1611.155523 803.229045,1614.603917 806.010165,1607.976140 816.498172,1612.316009 807.676758,1633.346633 797.299949,1629.049629 801.105300,1619.949143 792.670381,1616.457873 780.599786,1645.263405 766.015503,1639.215068 764.932358,1641.799324 759.491075,1639.543297 760.613305,1636.869906 745.988667,1630.810993 747.774610,1626.566931 743.739130,1624.890935 746.012763,1619.466229 749.967204,1621.098960 759.754445,1597.740450 756.548308,1596.408231 758.470463,1591.807889 761.959797,1593.258304 764.125935,1588.078714"/>
    <poly id="129345847" type="tourism" color="207,245,201" fill="1" layer="-2.00" shape="1292.803808,1595.578877 1320.409868,1528.416252 1454.255531,1582.822854 1426.649987,1649.985781 1292.803808,1595.578877"/>
    <poly id="129346075" type="building" color="255,230,230" fill="1" layer="-1.00" shape="800.450947,1520.516369 809.570431,1499.204917 827.786155,1506.812540 818.748879,1528.255884 800.450947,1520.516369"/>
    <poly id="129347412" type="building" color="255,230,230" fill="1" layer="-1.00" shape="1334.473122,1426.232816 1317.066827,1419.003101 1303.361078,1451.929531 1293.944272,1474.297707 1248.776494,1456.438575 1246.089886,1454.833837 1243.935034,1452.346983 1242.233634,1449.145209 1242.059291,1445.790658 1260.147475,1404.066361 1258.357469,1403.336267 1267.907598,1380.390295 1269.535815,1381.056018 1275.279967,1367.908648 1288.507992,1372.544910 1305.509167,1379.569427 1355.830608,1400.784666 1454.180576,1440.131338 1478.357546,1449.721200 1476.878435,1452.787055 1471.432512,1464.102671 1469.120955,1468.907614 1464.723455,1479.622426 1438.854691,1469.123931 1432.463012,1466.503858 1426.648520,1464.175399 1417.496232,1460.450115 1389.887959,1449.231880 1386.985533,1448.050961 1381.150366,1445.678439 1377.024327,1444.003808 1372.554452,1442.189623 1365.657464,1439.387751 1334.473122,1426.232816"/>
    <poly id="129348054" type="building" color="255,230,230" fill="1" layer="-1.00" shape="1277.138183,1411.057816 1260.147475,1404.066361 1258.357469,1403.336267 1267.907598,1380.390295 1269.535815,1381.056018 1285.727621,1387.725480 1286.459071,1385.954480 1284.011714,1384.955965 1287.650285,1376.211992 1330.369943,1393.803670 1326.906963,1402.124388 1333.945883,1405.013063 1330.765509,1412.632157 1321.339712,1408.755264 1317.066827,1419.003101 1303.361078,1451.929531 1266.446534,1436.732878 1277.138183,1411.057816"/>
    <poly id="129353157" type="building" color="255,230,230" fill="1" layer="-1.00" shape="1576.675053,1481.101919 1592.805261,1441.274870 1616.366662,1450.706323 1600.236507,1490.533402 1576.675053,1481.101919"/>
    <poly id="129353158" type="building" color="255,230,230" fill="1" layer="-1.00" shape="1564.670106,1422.818428 1538.526338,1412.057818 1522.080044,1451.567626 1523.313869,1452.072270 1546.696639,1461.694503 1548.233930,1462.328140 1564.670106,1422.818428"/>
    <poly id="129353158#1" type="tourism" color="207,245,201" fill="1" layer="-2.00" shape="1564.670106,1422.818428 1538.526338,1412.057818 1522.080044,1451.567626 1523.313869,1452.072270 1546.696639,1461.694503 1548.233930,1462.328140 1564.670106,1422.818428"/>
    <poly id="129353160" type="building" color="255,230,230" fill="1" layer="-1.00" shape="1558.489523,1471.212696 1559.711592,1461.536242 1563.092602,1461.614114 1565.506013,1460.773971 1568.009787,1456.055137 1568.521487,1453.633340 1567.665006,1450.431686 1565.739115,1447.764642 1569.966245,1440.198335 1584.610225,1446.178561 1583.914321,1455.316399 1578.523336,1455.386553 1574.856447,1463.488425 1577.064602,1467.747116 1570.970633,1476.412343 1558.489523,1471.212696"/>
    <poly id="129358456" type="amenity" color="237,199,199" fill="1" layer="-1.00" shape="1577.386416,1394.302770 1555.899379,1385.797028 1562.690262,1368.847008 1584.167220,1377.352870 1577.386416,1394.302770"/>
    <poly id="129358456#1" type="building" color="255,230,230" fill="1" layer="-1.00" shape="1577.386416,1394.302770 1555.899379,1385.797028 1562.690262,1368.847008 1584.167220,1377.352870 1577.386416,1394.302770"/>
    <poly id="129367520" type="building" color="255,230,230" fill="1" layer="-1.00" shape="870.186150,805.963862 879.389860,784.219144 872.388439,781.086043 869.891032,787.078699 867.323417,786.103833 863.928158,794.999637 866.172505,795.867909 863.107565,803.086564 870.186150,805.963862"/>
    <poly id="129367521" type="building" color="255,230,230" fill="1" layer="-1.00" shape="891.252592,803.862779 874.207551,796.483852 875.242318,794.055306 892.275864,801.323594 891.252592,803.862779"/>
    <poly id="129367522" type="building" color="255,230,230" fill="1" layer="-1.00" shape="905.713618,817.534593 888.679757,810.244166 891.252592,803.862779 892.275864,801.323594 895.209469,794.062320 912.300212,801.086113 905.713618,817.534593"/>
    <poly id="129367523" type="landuse" color="194,194,130" fill="1" layer="-3.00" shape="801.707889,879.183476 817.054074,843.954132 836.971352,852.525629 821.615293,887.766205 801.707889,879.183476"/>
    <poly id="129367524" type="leisure" color="207,245,201" fill="1" layer="-2.00" shape="869.522826,897.570201 886.122592,904.733343 898.450059,877.198333 881.595582,869.783703 869.522826,897.570201"/>
    <poly id="129367524#1" type="sport" color="79,230,125" fill="1" layer="-2.00" shape="869.522826,897.570201 886.122592,904.733343 898.450059,877.198333 881.595582,869.783703 869.522826,897.570201"/>
    <poly id="129367525" type="leisure" color="207,245,201" fill="1" layer="-2.00" shape="914.529108,786.023566 918.028756,785.180527 920.727554,785.411417 923.457380,787.259377 925.376300,790.181398 923.568702,795.843840 921.169599,798.555969 913.881085,798.107631 908.717111,795.493573 907.881218,793.089279 904.058029,789.926062 899.220761,790.786441 897.037621,789.208352 895.383643,786.548779 894.544162,783.867567 895.846741,780.372001 897.699589,778.198732 900.394510,777.355052 903.371890,778.125184 907.773354,784.770658 912.383889,786.594234 914.529108,786.023566"/>
    <poly id="129367525#1" type="sport" color="79,230,125" fill="1" layer="-2.00" shape="914.529108,786.023566 918.028756,785.180527 920.727554,785.411417 923.457380,787.259377 925.376300,790.181398 923.568702,795.843840 921.169599,798.555969 913.881085,798.107631 908.717111,795.493573 907.881218,793.089279 904.058029,789.926062 899.220761,790.786441 897.037621,789.208352 895.383643,786.548779 894.544162,783.867567 895.846741,780.372001 897.699589,778.198732 900.394510,777.355052 903.371890,778.125184 907.773354,784.770658 912.383889,786.594234 914.529108,786.023566"/>
    <poly id="129367526" type="shop" color="237,199,255" fill="1" layer="-1.00" shape="961.412401,791.331510 1039.259409,823.158519 1018.036940,874.484050 1005.022000,869.169001 940.189848,842.667982 961.412401,791.331510"/>
    <poly id="129367527" type="clinic" color="237,199,199" fill="1" layer="-2.00" shape="891.917943,831.129633 881.306362,826.525575 879.540846,830.780484 863.503076,825.061350 867.430957,815.349905 857.663487,811.454995 853.363050,821.138030 855.650358,822.216240 855.024495,823.598097 852.717646,822.564455 850.064904,828.991184 852.178511,829.861152 851.086552,832.534166 848.476977,831.426898 845.088303,840.056724 855.120869,844.225172 859.571319,833.698220 874.757383,839.672130 871.093729,848.039642 876.496505,850.451205 877.299522,848.767928 891.959468,855.280413 895.954142,846.842131 886.938354,842.738080 891.917943,831.129633"/>
    <poly id="129367527#1" type="building" color="255,230,230" fill="1" layer="-1.00" shape="891.917943,831.129633 881.306362,826.525575 879.540846,830.780484 863.503076,825.061350 867.430957,815.349905 857.663487,811.454995 853.363050,821.138030 855.650358,822.216240 855.024495,823.598097 852.717646,822.564455 850.064904,828.991184 852.178511,829.861152 851.086552,832.534166 848.476977,831.426898 845.088303,840.056724 855.120869,844.225172 859.571319,833.698220 874.757383,839.672130 871.093729,848.039642 876.496505,850.451205 877.299522,848.767928 891.959468,855.280413 895.954142,846.842131 886.938354,842.738080 891.917943,831.129633"/>
    <poly id="136397800" type="building" color="255,230,230" fill="1" layer="-1.00" shape="1145.020872,1225.356904 1154.442746,1228.945915 1156.739407,1222.989049 1157.867981,1220.038569 1159.522408,1215.751830 1160.874828,1212.222356 1151.452963,1208.633349 1145.020872,1225.356904"/>
    <poly id="136397800#1" type="shop" color="237,199,255" fill="1" layer="-1.00" shape="1145.020872,1225.356904 1154.442746,1228.945915 1156.739407,1222.989049 1157.867981,1220.038569 1159.522408,1215.751830 1160.874828,1212.222356 1151.452963,1208.633349 1145.020872,1225.356904"/>
    <poly id="151338422" type="historic" color="128,255,128" fill="0" layer="-1.00" shape="1693.220523,1623.695552 1647.363189,1604.727730 1567.330513,1571.613941"/>
    <poly id="195557043" type="parking" color="184,184,179" fill="1" layer="-1.00" shape="1024.916220,1483.850148 1004.372930,1533.349838 1037.180759,1546.816830 1057.734014,1497.316954 1024.916220,1483.850148"/>
    <poly id="195557045" type="building" color="255,230,230" fill="1" layer="-1.00" shape="1280.198645,1509.584363 1271.838505,1529.667677 1299.074393,1540.868839 1307.434646,1520.796583 1280.198645,1509.584363"/>
    <poly id="241514664" type="amenity" color="237,199,199" fill="1" layer="-1.00" shape="879.435495,1309.199353 903.764581,1250.654962 930.355586,1261.843018 908.460972,1321.164639 879.435495,1309.199353"/>
    <poly id="241514664#1" type="building" color="255,230,230" fill="1" layer="-1.00" shape="879.435495,1309.199353 903.764581,1250.654962 930.355586,1261.843018 908.460972,1321.164639 879.435495,1309.199353"/>
    <poly id="24776055" type="tourism" color="207,245,201" fill="1" layer="-2.00" shape="793.682222,883.176054 849.150122,746.002284 940.185089,781.026771 884.749510,920.637835 793.682222,883.176054"/>
    <poly id="24776093" type="amenity" color="237,199,199" fill="1" layer="-1.00" shape="720.267468,1636.339908 800.776402,1669.109017 866.850107,1508.588523 786.331855,1475.819981 720.267468,1636.339908"/>
    <poly id="248806635" type="industrial" color="209,209,204" fill="1" layer="-3.00" shape="1616.840199,1223.555182 1841.645745,1313.798288 1892.190786,1189.302392 1899.880439,1170.346287 1675.076754,1080.104257 1616.840199,1223.555182"/>
    <poly id="259121817" type="building" color="255,230,230" fill="1" layer="-1.00" shape="733.656230,633.622154 748.972454,640.347846 753.497752,630.163394 738.191594,623.437578 733.656230,633.622154"/>
    <poly id="259121819" type="building" color="255,230,230" fill="1" layer="-1.00" shape="729.570861,642.825984 744.877035,649.551811 748.972454,640.347846 733.656230,633.622154 729.570861,642.825984"/>
    <poly id="259121821" type="building" color="255,230,230" fill="1" layer="-1.00" shape="616.417770,597.672664 608.926213,614.941436 620.861892,620.060321 628.353294,602.780466 616.417770,597.672664"/>
    <poly id="259121825" type="building" color="255,230,230" fill="1" layer="-1.00" shape="654.547410,633.151124 661.734466,616.451274 653.339422,612.881893 646.152359,629.581738 654.547410,633.151124"/>
    <poly id="259121827" type="building" color="255,230,230" fill="1" layer="-1.00" shape="666.574340,639.099683 674.706482,642.561675 682.752728,623.856543 674.620594,620.394555 666.574340,639.099683"/>
    <poly id="259121831" type="building" color="255,230,230" fill="1" layer="-1.00" shape="723.515062,656.774812 738.515084,663.161176 743.328913,651.953762 728.329043,645.578480 723.515062,656.774812"/>
    <poly id="259121834" type="building" color="255,230,230" fill="1" layer="-1.00" shape="640.117946,604.012968 631.573658,623.876692 641.910716,628.273993 650.454993,608.410262 640.117946,604.012968"/>
    <poly id="259121835" type="building" color="255,230,230" fill="1" layer="-1.00" shape="738.191594,623.437578 753.497752,630.163394 760.847897,613.638627 745.531552,606.901873 738.191594,623.437578"/>
    <poly id="259121838" type="building" color="255,230,230" fill="1" layer="-1.00" shape="674.706482,642.561675 685.387379,647.098513 696.099307,622.188081 698.823906,615.871238 688.142884,611.323335 682.752728,623.856543 674.706482,642.561675"/>
    <poly id="259126197" type="building" color="255,230,230" fill="1" layer="-1.00" shape="860.985657,663.457413 843.670842,656.203821 839.561827,665.906532 856.876652,673.160130 860.985657,663.457413"/>
    <poly id="259126198" type="building" color="255,230,230" fill="1" layer="-1.00" shape="789.417329,616.148866 800.968333,621.073167 809.161517,602.077997 797.610525,597.153704 789.417329,616.148866"/>
    <poly id="259126200" type="building" color="255,230,230" fill="1" layer="-1.00" shape="829.246488,663.193041 837.529695,666.664060 844.323167,650.656072 836.029910,647.185189 829.246488,663.193041"/>
    <poly id="259126201" type="building" color="255,230,230" fill="1" layer="-1.00" shape="864.212197,612.066330 860.587834,620.355786 875.943197,626.992200 879.567553,618.702739 864.212197,612.066330"/>
    <poly id="259126202" type="building" color="255,230,230" fill="1" layer="-1.00" shape="857.454885,620.773073 861.523355,611.048723 854.090287,607.976608 850.021669,617.689879 857.454885,620.773073"/>
    <poly id="259126203" type="building" color="255,230,230" fill="1" layer="-1.00" shape="761.097115,657.717074 780.618698,666.050033 784.017263,658.184515 764.495689,649.851562 761.097115,657.717074"/>
    <poly id="259126204" type="building" color="255,230,230" fill="1" layer="-1.00" shape="850.483410,640.118032 846.667219,649.130078 863.982026,656.383665 867.798209,647.371614 850.483410,640.118032"/>
    <poly id="259126206" type="building" color="255,230,230" fill="1" layer="-1.00" shape="780.402702,614.448793 776.553576,623.250750 795.702289,631.533123 799.551263,622.720083 780.402702,614.448793"/>
    <poly id="259126207" type="building" color="255,230,230" fill="1" layer="-1.00" shape="756.458588,668.479081 775.980182,676.812047 780.618698,666.050033 761.097115,657.717074 756.458588,668.479081"/>
    <poly id="259126209" type="building" color="255,230,230" fill="1" layer="-1.00" shape="828.262502,643.929056 836.029910,647.185189 840.753856,636.034291 832.986597,632.789239 828.262502,643.929056"/>
    <poly id="259126210" type="building" color="255,230,230" fill="1" layer="-1.00" shape="863.982026,656.383665 846.667219,649.130078 843.670842,656.203821 860.985657,663.457413 863.982026,656.383665"/>
    <poly id="259126211" type="building" color="255,230,230" fill="1" layer="-1.00" shape="764.495689,649.851562 784.017263,658.184515 791.770987,640.203206 772.249576,631.881342 764.495689,649.851562"/>
    <poly id="259126213" type="building" color="255,230,230" fill="1" layer="-1.00" shape="826.818117,647.348903 821.479073,659.936904 829.246488,663.193041 836.029910,647.185189 828.262502,643.929056 826.818117,647.348903"/>
    <poly id="259126215" type="building" color="255,230,230" fill="1" layer="-1.00" shape="787.846355,678.109582 798.486090,682.569318 803.151461,671.552139 811.818530,651.088456 801.188871,646.628602 787.846355,678.109582"/>
    <poly id="259126216" type="building" color="255,230,230" fill="1" layer="-1.00" shape="780.746449,675.132815 787.846355,678.109582 801.188871,646.628602 802.038006,644.623453 794.938257,641.657771 780.746449,675.132815"/>
    <poly id="259126218" type="building" color="255,230,230" fill="1" layer="-1.00" shape="815.430004,642.577612 811.818530,651.088456 803.151461,671.552139 814.539592,676.323442 821.479073,659.936904 826.818117,647.348903 815.430004,642.577612"/>
    <poly id="259126219" type="building" color="255,230,230" fill="1" layer="-1.00" shape="871.629528,604.613985 867.178826,602.699698 863.985063,610.064050 881.372961,617.527158 884.566861,610.173878 880.621884,608.474610 871.629528,604.613985"/>
    <poly id="259126220" type="building" color="255,230,230" fill="1" layer="-1.00" shape="832.099730,613.258108 825.208997,629.522158 832.986597,632.789239 840.753856,636.034291 850.483410,640.118032 867.798209,647.371614 874.688902,631.107540 832.099730,613.258108"/>
    <poly id="259129254" type="building" color="255,230,230" fill="1" layer="-1.00" shape="729.496027,856.809694 739.363485,860.659087 744.758608,846.951470 734.891302,843.113158 729.496027,856.809694"/>
    <poly id="259129255" type="building" color="255,230,230" fill="1" layer="-1.00" shape="775.741926,814.466504 772.060678,823.809129 788.893777,830.360036 792.575016,821.017407 775.741926,814.466504"/>
    <poly id="259129256" type="building" color="255,230,230" fill="1" layer="-1.00" shape="762.792657,714.051849 745.262609,707.266219 741.903363,715.840244 759.433419,722.625878 762.792657,714.051849"/>
    <poly id="259129257" type="building" color="255,230,230" fill="1" layer="-1.00" shape="695.216958,821.237218 691.545423,830.557533 710.612912,837.988044 714.284437,828.667723 695.216958,821.237218"/>
    <poly id="259129258" type="building" color="255,230,230" fill="1" layer="-1.00" shape="729.812376,736.015864 724.757817,748.832781 765.642418,764.754825 770.687033,751.949098 729.812376,736.015864"/>
    <poly id="259129259" type="building" color="255,230,230" fill="1" layer="-1.00" shape="804.465025,750.403550 818.248706,756.063332 825.711398,735.028089 812.663923,729.513875 804.465025,750.403550"/>
    <poly id="259129260" type="building" color="255,230,230" fill="1" layer="-1.00" shape="732.432123,795.374187 748.567768,801.668289 753.485976,789.196566 737.350486,782.913547 732.432123,795.374187"/>
    <poly id="259129261" type="building" color="255,230,230" fill="1" layer="-1.00" shape="691.545423,830.557533 686.734615,842.784109 705.802119,850.214627 710.612912,837.988044 691.545423,830.557533"/>
    <poly id="259129262" type="building" color="255,230,230" fill="1" layer="-1.00" shape="782.918650,794.642564 796.778516,799.969026 800.351263,790.793977 786.481348,785.467650 782.918650,794.642564"/>
    <poly id="259129263" type="building" color="255,230,230" fill="1" layer="-1.00" shape="702.803696,801.995184 699.385199,810.658589 718.452666,818.089087 721.871154,809.425677 702.803696,801.995184"/>
    <poly id="259129264" type="building" color="255,230,230" fill="1" layer="-1.00" shape="795.578631,746.962482 804.465025,750.403550 812.663923,729.513875 803.777396,726.061736 795.578631,746.962482"/>
    <poly id="259129265" type="building" color="255,230,230" fill="1" layer="-1.00" shape="784.805867,770.278468 780.784116,780.511795 804.006666,789.550121 808.038603,779.327733 784.805867,770.278468"/>
    <poly id="259129266" type="building" color="255,230,230" fill="1" layer="-1.00" shape="707.600226,850.025160 719.399093,854.658289 730.591954,826.484511 718.793107,821.851394 707.600226,850.025160"/>
    <poly id="259129267" type="building" color="255,230,230" fill="1" layer="-1.00" shape="699.385199,810.658589 695.216958,821.237218 714.284437,828.667723 718.452666,818.089087 699.385199,810.658589"/>
    <poly id="259129268" type="building" color="255,230,230" fill="1" layer="-1.00" shape="724.757817,748.832781 719.898367,761.181868 726.186833,763.637408 760.772940,777.104059 765.642418,764.754825 724.757817,748.832781"/>
    <poly id="259129269" type="building" color="255,230,230" fill="1" layer="-1.00" shape="735.994222,831.189401 746.043556,835.102903 751.848009,820.381828 742.607428,816.779133 741.798683,816.468331 735.994222,831.189401"/>
    <poly id="259129270" type="building" color="255,230,230" fill="1" layer="-1.00" shape="732.432123,795.374187 726.481969,810.495969 741.798683,816.468331 742.607428,816.779133 748.567768,801.668289 732.432123,795.374187"/>
    <poly id="259129271" type="building" color="255,230,230" fill="1" layer="-1.00" shape="764.096299,737.809593 775.772828,742.322387 785.032405,718.671500 773.365949,714.158584 767.562437,728.946134 764.096299,737.809593"/>